
                       OWHM 1.0
    U.S. GEOLOGICAL SURVEY MODULAR FINITE-DIFFERENCE 
         ONE-WATER HYDROLOGIC-FLOW MODEL [OWHM]
              Version 1.0.0   11/05/2014

 INCLUDES:
          MODFLOW-2005 Version 1.11.0  08/08/2013
          FMP          Version 3.0.0   08/01/2014
          SWR          Version 1.03.0  09/24/2013
          SWI          Version 2.0.0   07/22/2013
          LGR          Version 2.0.0   09/19/2013
          NWT          Version 1.0.9   07/01/2014


 LIST FILE: ../../test-out-owhm-lgr/fmp-lgr-nwt/OWHM_EX2_child2.lst
                         UNIT  712

 OPENING OWHM_EX2_child2.upw
 FILE TYPE:UPW   UNIT  912   STATUS:OLD    
 FORMAT:FORMATTED              ACCESS:SEQUENTIAL          

 OPENING OWHM_EX2_child2.ba6
 FILE TYPE:BAS6   UNIT 1012   STATUS:OLD    
 FORMAT:FORMATTED              ACCESS:SEQUENTIAL          

 OPENING OWHM_EX2_child2.dis
 FILE TYPE:DIS   UNIT 1112   STATUS:OLD    
 FORMAT:FORMATTED              ACCESS:SEQUENTIAL          
#fmp           1212 OWHM_EX2_child2.fmp   --> No file present for this as this child is not using fmp                                                                                                                                                                                                                                                                                                                                                                                                                                                                                                                                                                                                                       

 OPENING OWHM_EX2_child2.oc
 FILE TYPE:OC   UNIT 1912   STATUS:OLD    
 FORMAT:FORMATTED              ACCESS:SEQUENTIAL          
# Solvers                                                                                                                                                                                                                                                                                                                                                                                                                                                                                                                                                                                                                                                                                                                   

 OPENING OWHM_EX2.nwt
 FILE TYPE:NWT   UNIT 1812   STATUS:OLD    
 FORMAT:FORMATTED              ACCESS:SEQUENTIAL          
#                                                                                                                                                                                                                                                                                                                                                                                                                                                                                                                                                                                                                                                                                                                           

 OPENING ../../test-out-owhm-lgr/fmp-lgr-nwt/OWHM_EX2_child2.hed
 FILE TYPE:DATA   UNIT 2212   STATUS:UNKNOWN
 FORMAT:FORMATTED              ACCESS:SEQUENTIAL          
#FMP Datafiles                                                                                                                                                                                                                                                                                                                                                                                                                                                                                                                                                                                                                                                                                                              
#data          2012 OFE.in                                                                                                                                                                                                                                                                                                                                                                                                                                                                                                                                                                                                                                                                                                  
#data          3012 ROOT.in                                                                                                                                                                                                                                                                                                                                                                                                                                                                                                                                                                                                                                                                                                 
#data          4012 KC.in                                                                                                                                                                                                                                                                                                                                                                                                                                                                                                                                                                                                                                                                                                   
#data          5012 FTE.in                                                                                                                                                                                                                                                                                                                                                                                                                                                                                                                                                                                                                                                                                                  
#data          6012 INEFFSW.in                                                                                                                                                                                                                                                                                                                                                                                                                                                                                                                                                                                                                                                                                              
#DATA          8012 NRDFAC.in                                                                                                                                                                                                                                                                                                                                                                                                                                                                                                                                                                                                                                                                                               
#                                                                                                                                                                                                                                                                                                                                                                                                                                                                                                                                                                                                                                                                                                                           

 OPENING ../../test-out-owhm-lgr/fmp-lgr-nwt/CBC_child2.OUT
 FILE TYPE:DATA(BINARY)   UNIT 7012   STATUS:UNKNOWN
 FORMAT:UNFORMATTED            ACCESS:STREAM              

 OPENING ../../test-out-owhm-lgr/fmp-lgr-nwt/OWHM_EX2_child_bfh2.hed
 FILE TYPE:DATA   UNIT 5912   STATUS:UNKNOWN
 FORMAT:FORMATTED              ACCESS:SEQUENTIAL          

 OPENING ../../test-out-owhm-lgr/fmp-lgr-nwt/OWHM_EX2_child_bfh2.flw
 FILE TYPE:DATA   UNIT 6912   STATUS:UNKNOWN
 FORMAT:FORMATTED              ACCESS:SEQUENTIAL          

 BAS -- BASIC PACKAGE, VERSION 7, 5/2/2005 INPUT READ FROM UNIT 1012
 
 MODFLOW was compiled using mixed precision
 Precision of REAL variables:           6
 Precision of DOUBLE PRECISION variables:          15

 DISCRETIZATION INPUT DATA READ FROM UNIT 1112
 # generic model 1 transient discretization file

*** DIS COORDINATE SYSTEM NOT SEPECIFIED ***
DEFAULT VALUES APPLIED ARE 0° ROTATION
WITH THE ORIGIN (0,0) LOCATED AT THE MODEL'S LOWER LEFT CORNER


    4 LAYERS         3 ROWS        12 COLUMNS
     24 STRESS PERIOD(S) IN SIMULATION
 MODEL TIME UNIT IS DAYS
 MODEL LENGTH UNIT IS METERS
  Confining bed flag for each layer:
   1   1   1   0

                     DELR =   166.667    

                     DELC =   166.667    

 OPENING FILE ON UNIT   99:
 ./DATA_FMP/GSE_child2.in                                                                                                                                                                                                                                                                                                                                                                                                                                                                                                                                                                                                                                                                                                    



           TOP ELEVATION OF LAYER 1
 READING ON UNIT   99 WITH FORMAT: (FREE)              

   MODEL LAYER BOTTOM EL. =   205.000     FOR LAYER   1

 BOT. EL. OF QUASI-3D BED =   200.000     FOR LAYER   1

   MODEL LAYER BOTTOM EL. =   140.000     FOR LAYER   2

 BOT. EL. OF QUASI-3D BED =   125.000     FOR LAYER   2

   MODEL LAYER BOTTOM EL. =   65.0000     FOR LAYER   3

 BOT. EL. OF QUASI-3D BED =   60.0000     FOR LAYER   3

   MODEL LAYER BOTTOM EL. =   0.00000     FOR LAYER   4


 STRESS PERIOD     LENGTH       TIME STEPS     MULTIPLIER FOR DELT    SS FLAG
 ----------------------------------------------------------------------------
        1         30.42000          2                    1.000         TR
        2         30.42000          2                    1.000         TR
        3         30.42000          2                    1.000         TR
        4         30.42000          2                    1.000         TR
        5         30.42000          2                    1.000         TR
        6         30.42000          2                    1.000         TR
        7         30.42000          2                    1.000         TR
        8         30.42000          2                    1.000         TR
        9         30.42000          2                    1.000         TR
       10         30.42000          2                    1.000         TR
       11         30.42000          2                    1.000         TR
       12         30.42000          2                    1.000         TR
       13         30.42000          2                    1.000         TR
       14         30.42000          2                    1.000         TR
       15         30.42000          2                    1.000         TR
       16         30.42000          2                    1.000         TR
       17         30.42000          2                    1.000         TR
       18         30.42000          2                    1.000         TR
       19         30.42000          2                    1.000         TR
       20         30.42000          2                    1.000         TR
       21         30.42000          2                    1.000         TR
       22         30.42000          2                    1.000         TR
       23         30.42000          2                    1.000         TR
       24         30.42000          2                    1.000         TR

 TRANSIENT SIMULATION



 
 # generic model 1                                                               
 THE FREE FORMAT OPTION HAS BEEN SELECTED

 THE MAX STORAGE FOR PROPERTIES DEFINED BY PARAMETERS IS: 
 MAX STORAGE OF PARAMETERS (MXPAR)  IS       2000
 MAX STORAGE OF INSTANCES  (MXINST) IS      50000
 MAX STORAGE OF CLUSTERS   (MXCLST) IS    2000000

 CALCULATE FLOW BETWEEN ADJACENT CONSTANT-HEAD CELLS

 OPENING FILE ON UNIT   99:
 OWHM_EX2_child2.ib                                                                                                                                                                                                                                                                                                                                                                                                                                                                                                                                                                                                                                                                                                          



                     BOUNDARY ARRAY FOR LAYER   1
 READING ON UNIT   99 WITH FORMAT: (FREE)              

 OPENING FILE ON UNIT   99:
 OWHM_EX2_child2.ib                                                                                                                                                                                                                                                                                                                                                                                                                                                                                                                                                                                                                                                                                                          



                     BOUNDARY ARRAY FOR LAYER   2
 READING ON UNIT   99 WITH FORMAT: (FREE)              

 OPENING FILE ON UNIT   99:
 OWHM_EX2_child2.ib                                                                                                                                                                                                                                                                                                                                                                                                                                                                                                                                                                                                                                                                                                          



                     BOUNDARY ARRAY FOR LAYER   3
 READING ON UNIT   99 WITH FORMAT: (FREE)              

 OPENING FILE ON UNIT   99:
 OWHM_EX2_child2.ib                                                                                                                                                                                                                                                                                                                                                                                                                                                                                                                                                                                                                                                                                                          



                     BOUNDARY ARRAY FOR LAYER   4
 READING ON UNIT   99 WITH FORMAT: (FREE)              

CHECKING FOR VALID MODEL DIMENIONS FOR DELR, DELC, AND THICKNESS


 AQUIFER HEAD WILL BE SET TO  -333.00     AT ALL NO-FLOW NODES (IBOUND=0).

             INITIAL HEAD =   0.00000     FOR LAYER   1

             INITIAL HEAD =   0.00000     FOR LAYER   2

             INITIAL HEAD =   0.00000     FOR LAYER   3

             INITIAL HEAD =   0.00000     FOR LAYER   4

 OUTPUT CONTROL IS SPECIFIED ONLY AT TIME STEPS FOR WHICH OUTPUT IS DESIRED
 HEADS WILL BE SAVED WITH FORMAT: (100F8.2)           
 SAVED HEADS WILL BE LABELED
 COMPACT CELL-BY-CELL BUDGET FILES WILL BE WRITTEN
 HEAD PRINT FORMAT CODE IS  -3    DRAWDOWN PRINT FORMAT CODE IS   0
 HEADS WILL BE SAVED ON UNIT 2212    DRAWDOWNS WILL BE SAVED ON UNIT    0  WATER BUDGETs WILL BE SAVED ON UNIT 

 LGR2 -- LOCAL GRID REFINEMENT, VERSION 2.0, 06/25/2013
        INPUT READ FOR MODEL  3 DEFINED BY NAME FILE OWHM_EX2_child2.nam

 LOCAL GRID REFINEMENT IS ACTIVE FOR CHILD ONLY
               STARTING HEADS FROM PARENT WILL BE USED: ISHFLG =   1
               VALUE IN IBOUND INDICATING BOUNDARY INTERFACE = 4912
               BOUNDARY HEADS WILL BE SAVED ON UNIT  5912
               BOUNDARY FLUXES WILL BE SAVED ON UNIT  6912
               MAX NUMBER OF LGR ITERATIONS = 30
               LGR ITERATION RESULTS WRITTEN TO SCREEN: IOUTLGR =  -1

               WEIGHTING FACTORS FOR RELAXATION
               RELAXH(HEAD) RELAXF(FLUX)
               -------------------------
               0.500E+00      0.500E+00

               CLOSURE CRITERIA FOR LGR ITERATIONS
               HCLOSELGR       FCLOSELGR
               -------------------------
               5.000E-04      1.000E+00

               STARTING LAYER, ROW, COLUMN=   1,  18,  10
               ENDING LAYER, ROW, COLUMN=     4,  18,  13
               NCPP: NUMBER OF CHILD CELLS PER WIDTH OF PARENT CELL= 3
               NCPPL: NUMBER OF CHILD LAYERS IN LAYER  1 OF PARENT = 1
               NCPPL: NUMBER OF CHILD LAYERS IN LAYER  2 OF PARENT = 1
               NCPPL: NUMBER OF CHILD LAYERS IN LAYER  3 OF PARENT = 1
               NCPPL: NUMBER OF CHILD LAYERS IN LAYER  4 OF PARENT = 1
 # NWT: Newton Solver file created on 3/20/2013 by ModelMuse version 2.18.1.0.

 NWT1 -- Newton Solver, VERSION 1.0.9, 07/01/2014
         INPUT READ FROM UNIT 1812

 COMPLEX OPTION:
 DEFAULT SOLVER INPUT VALUES REFLECT STRONGLY NONLINEAR MODEL
 ***GMRES linear solver will be used***
 
   CONVERGENCE CRITERION OF   0.100000E-03 FOR HEAD SOLUTION
   AND A TOLERANCE OF   0.500000E+03 FOR FLOW SOLUTION AND 
   A MAXIMUM OF   100 OUTER ITERATIONS. 


   D-B-D REDUCTION FACTOR OF    0.850000E+00 AND 
   A D-B-D INCREASE FACTOR OF    0.100000E-04 AND 
   A D-B-D RELAXATION OF    0.000000E+00 AND 
   A MOMENTUM FACTOR OF    0.100000E+00 .


   BACKTRACKING IS ACTIVE 
   THE MAXIMUM NUMBER OF BACKTRACKS IS    50 AND 
   THE BACKTRACKING TOLERANCE IS    0.110000E+01 AND
   THE BACKTRACKING REDUCTION FACTOR IS    0.700000E+00

 GMRES -- LINEAR SOLUTION BY GMRES PACKAGE 
     UNIT:  1812
     adapted for HYDROTHERM by Kipp and others (2008)
     using software originally developed by Saad (1990)
     using algorithms described in Saad (2003)

 UPW1 -- UPSTREAM WEIGHTING FLOW PACKAGE, VERSION 1.0.6, 12/05/2012
         INPUT READ FROM UNIT912

 CELL-BY-CELL FLOWS WILL BE SAVED ON UNIT 7012
 No named parameters

   LAYER FLAGS:
 LAYER       LAYTYP          LAYAVG    CHANI           LAYVKA           LAYWET
 ---------------------------------------------------------------------------
    1             1             0     1.000E+00             1             0
    2             0             0     1.000E+00             1             0
    3             0             0     1.000E+00             1             0
    4             0             0     1.000E+00             1             0

   INTERPRETATION OF LAYER FLAGS:
                        INTERBLOCK     HORIZONTAL    DATA IN
         LAYER TYPE   TRANSMISSIVITY   ANISOTROPY   ARRAY VKA   WETTABILITY
 LAYER   (LAYTYP)        (LAYAVG)      (CHANI)     (LAYVKA)       (LAYWET)
 ---------------------------------------------------------------------------
    1   CONVERTIBLE      HARMONIC     1.000E+00    ANISOTROPY  NON-WETTABLE
    2      CONFINED      HARMONIC     1.000E+00    ANISOTROPY  NON-WETTABLE
    3      CONFINED      HARMONIC     1.000E+00    ANISOTROPY  NON-WETTABLE
    4      CONFINED      HARMONIC     1.000E+00    ANISOTROPY  NON-WETTABLE

    HYD. COND. ALONG ROWS =   10.0000     FOR LAYER   1

  HORIZ. TO VERTICAL ANI. =   1.00000     FOR LAYER   1

         SPECIFIC STORAGE =  1.000000E-05 FOR LAYER   1

           SPECIFIC YIELD =  2.000000E-02 FOR LAYER   1

 QUASI3D VERT. HYD. COND. =  2.000000E-03 FOR LAYER   1

    HYD. COND. ALONG ROWS =   1.50000     FOR LAYER   2

  HORIZ. TO VERTICAL ANI. =   1.00000     FOR LAYER   2

         SPECIFIC STORAGE =  1.000000E-05 FOR LAYER   2

 QUASI3D VERT. HYD. COND. =  1.000000E-03 FOR LAYER   2

    HYD. COND. ALONG ROWS =   1.00000     FOR LAYER   3

  HORIZ. TO VERTICAL ANI. =   1.00000     FOR LAYER   3

         SPECIFIC STORAGE =  1.000000E-05 FOR LAYER   3

 QUASI3D VERT. HYD. COND. =  5.000000E-04 FOR LAYER   3

    HYD. COND. ALONG ROWS =  0.150000     FOR LAYER   4

  HORIZ. TO VERTICAL ANI. =   1.00000     FOR LAYER   4

         SPECIFIC STORAGE =  1.000000E-05 FOR LAYER   4
1
                            STRESS PERIOD NO.      1, LENGTH =   30.42000    
                            -----------------------------------------------

                              NUMBER OF TIME STEPS =     2

                               MULTIPLIER FOR DELT =     1.000

                            INITIAL TIME STEP SIZE =   15.21000    

PARAMETERS HAVE BEEN USED IN PACKAGES
THE CURRENT STORAGE FOR PARAMETERS IS: 
# PARAMETER=         0 WITH MAX STORAGE (MXPAR)  OF      2000
# INSTANCES=         0 WITH MAX STORAGE (MXINST) OF     50000
# CLUSTERS =         0 WITH MAX STORAGE (MXCLST) OF   2000000
YOU CAN INCREASE/DECREASE STORAGE WITH BAS OPTION:
MAXPARAM  MXPAR  MXCLST MXINST
 
 SOLVING FOR HEAD 
                                                   Max.-Head-Change                        Max.-Flux-Residual
  Residual-Control   Outer-Iter.   Inner-Iter.     Column Row Layer    Max.-Head-Change    Column Row Layer    Max.-Flux-Residual            L2-New               L2-Old           Solver-Max-Delh
          0                 1           7             6    2     1      -0.1186058969E+02       3    1    1      -0.3784207775E+04      0.1819865468E+05      0.0000000000E+00     -0.1186058969E+02
          0                 2           7             7    1     1       0.5982410197E+00      12    1    1       0.3926682297E+03      0.1563310050E+04      0.1819865468E+05      0.5982410197E+00
          0                 3           5             7    1     1       0.4594468642E-01      12    1    1       0.2791634863E+02      0.1152609830E+03      0.1563310050E+04      0.4594468642E-01
          0                 4           4             7    3     1       0.3524187296E-02      12    1    1       0.1960692435E+01      0.8550834910E+01      0.1152609830E+03      0.3524187296E-02
          0                 5           3             7    1     1       0.2714901661E-03       6    1    1       0.1456071888E+00      0.6350865980E+00      0.8550834910E+01      0.2714901661E-03
          0                 6           2             7    3     1       0.2017198637E-04       7    3    1       0.1492800703E-01      0.4467625045E-01      0.6350865980E+00      0.2017198637E-04

    ------------------------------------------------
       NWT REQUIRED            6 OUTER ITERATIONS 
       AND A TOTAL OF         28 INNER ITERATIONS.
    ------------------------------------------------
                                                   Max.-Head-Change                        Max.-Flux-Residual
  Residual-Control   Outer-Iter.   Inner-Iter.     Column Row Layer    Max.-Head-Change    Column Row Layer    Max.-Flux-Residual            L2-New               L2-Old           Solver-Max-Delh
          0                 1           7             7    3     1      -0.6040315570E+01       1    3    1      -0.3130905159E+04      0.1150657325E+05      0.4467625045E-01     -0.6040315570E+01
          0                 2           6             7    3     1       0.3509730461E+00       1    3    1       0.2483039547E+03      0.8141448082E+03      0.1150657325E+05      0.3509730461E+00
          0                 3           5             6    3     1       0.2714418233E-01       1    3    1       0.1753888396E+02      0.6120394435E+02      0.8141448082E+03      0.2714418233E-01
          0                 4           4             6    3     1       0.2098450365E-02       1    3    1       0.1240387679E+01      0.4605387406E+01      0.6120394435E+02      0.2098450365E-02
          0                 5           3             7    3     1       0.1618599300E-03       1    3    1       0.8926481847E-01      0.3450365083E+00      0.4605387406E+01      0.1618599300E-03
          0                 6           2             7    3     1       0.1806441884E-04       1    3    1       0.1342795690E-01      0.4026578353E-01      0.3450365083E+00      0.1806441884E-04

    ------------------------------------------------
       NWT REQUIRED            6 OUTER ITERATIONS 
       AND A TOTAL OF         27 INNER ITERATIONS.
    ------------------------------------------------
                                                   Max.-Head-Change                        Max.-Flux-Residual
  Residual-Control   Outer-Iter.   Inner-Iter.     Column Row Layer    Max.-Head-Change    Column Row Layer    Max.-Flux-Residual            L2-New               L2-Old           Solver-Max-Delh
          0                 1           7             7    3     1      -0.2209479331E+01       1    3    1      -0.1305475706E+04      0.4394460185E+04      0.4026578353E-01     -0.2209479331E+01
          0                 2           6             6    3     2       0.1485390700E+00       1    3    1       0.9957435461E+02      0.3112871938E+03      0.4394460185E+04      0.1485390700E+00
          0                 3           5             7    3     1       0.1008337309E-01       1    3    1       0.7013455312E+01      0.2337089042E+02      0.3112871938E+03      0.1008337309E-01
          0                 4           4             6    3     1       0.7855982385E-03       1    3    1       0.4987438001E+00      0.1763175240E+01      0.2337089042E+02      0.7855982385E-03
          0                 5           3             6    1     1       0.6314467975E-04       1    1    1       0.3839909844E-01      0.1340834548E+00      0.1763175240E+01      0.6314467975E-04

    ------------------------------------------------
       NWT REQUIRED            5 OUTER ITERATIONS 
       AND A TOTAL OF         25 INNER ITERATIONS.
    ------------------------------------------------
                                                   Max.-Head-Change                        Max.-Flux-Residual
  Residual-Control   Outer-Iter.   Inner-Iter.     Column Row Layer    Max.-Head-Change    Column Row Layer    Max.-Flux-Residual            L2-New               L2-Old           Solver-Max-Delh
          0                 1           7             7    1     1      -0.8429387262E+00       1    1    1      -0.5812255052E+03      0.1809031612E+04      0.1340834548E+00     -0.8429387262E+00
          0                 2           5             6    1     2       0.6065447925E-01       1    1    1       0.4419868649E+02      0.1288275597E+03      0.1809031612E+04      0.6065447925E-01
          0                 3           4             7    1     1       0.3854316672E-02       1    1    1       0.3091213517E+01      0.9611727562E+01      0.1288275597E+03      0.3854316672E-02
          0                 4           3             6    1     1       0.3042196105E-03       1    3    1       0.2199592208E+00      0.7259944650E+00      0.9611727562E+01      0.3042196105E-03
          0                 5           2             8    3     1       0.2565628355E-04       1    3    1       0.1904896362E-01      0.5467223673E-01      0.7259944650E+00      0.2565628355E-04

    ------------------------------------------------
       NWT REQUIRED            5 OUTER ITERATIONS 
       AND A TOTAL OF         21 INNER ITERATIONS.
    ------------------------------------------------
                                                   Max.-Head-Change                        Max.-Flux-Residual
  Residual-Control   Outer-Iter.   Inner-Iter.     Column Row Layer    Max.-Head-Change    Column Row Layer    Max.-Flux-Residual            L2-New               L2-Old           Solver-Max-Delh
          0                 1           6            12    2     1      -0.3195738808E+00       1    1    1      -0.2445861008E+03      0.6715842950E+03      0.5467223673E-01     -0.3195738808E+00
          0                 2           5            12    2     2       0.2340006344E-01       1    1    1       0.1881132607E+02      0.4878375639E+02      0.6715842950E+03      0.2340006344E-01
          0                 3           4            12    2     1       0.1466838807E-02       1    1    1       0.1306759072E+01      0.3565406163E+01      0.4878375639E+02      0.1466838807E-02
          0                 4           3            12    1     1       0.1074325663E-03      12    1    1       0.9115421050E-01      0.2633672967E+00      0.3565406163E+01      0.1074325663E-03
          0                 5           2             1    3     1       0.1034912315E-04       1    3    1       0.1429230638E-01      0.2782256266E-01      0.2633672967E+00      0.1034912315E-04

    ------------------------------------------------
       NWT REQUIRED            5 OUTER ITERATIONS 
       AND A TOTAL OF         20 INNER ITERATIONS.
    ------------------------------------------------
                                                   Max.-Head-Change                        Max.-Flux-Residual
  Residual-Control   Outer-Iter.   Inner-Iter.     Column Row Layer    Max.-Head-Change    Column Row Layer    Max.-Flux-Residual            L2-New               L2-Old           Solver-Max-Delh
          0                 1           6            12    2     1      -0.1155708087E+00       1    1    1      -0.9170089988E+02      0.2189549634E+03      0.2782256266E-01     -0.1155708087E+00
          0                 2           4            12    2     2       0.9513008556E-02       1    1    1       0.7207696337E+01      0.1678272738E+02      0.2189549634E+03      0.9513008556E-02
          0                 3           4            12    2     1       0.5312840877E-03       1    1    1       0.4835714252E+00      0.1159584563E+01      0.1678272738E+02      0.5312840877E-03
          0                 4           2            12    2     1       0.3709229102E-04      12    1    1       0.3196033166E-01      0.7955297072E-01      0.1159584563E+01      0.3709229102E-04

    ------------------------------------------------
       NWT REQUIRED            4 OUTER ITERATIONS 
       AND A TOTAL OF         16 INNER ITERATIONS.
    ------------------------------------------------
                                                   Max.-Head-Change                        Max.-Flux-Residual
  Residual-Control   Outer-Iter.   Inner-Iter.     Column Row Layer    Max.-Head-Change    Column Row Layer    Max.-Flux-Residual            L2-New               L2-Old           Solver-Max-Delh
          0                 1           5            12    2     2      -0.3968155196E-01      12    1    1      -0.2758645648E+02      0.7211934714E+02      0.7955297072E-01     -0.3968155196E-01
          0                 2           4            12    2     2       0.3375457142E-02      12    1    1       0.2272032505E+01      0.5943192118E+01      0.7211934714E+02      0.3375457142E-02
          0                 3           3            12    2     2       0.1722438515E-03       1    1    1       0.1475359849E+00      0.3848817963E+00      0.5943192118E+01      0.1722438515E-03
          0                 4           2            12    1     1       0.1266526259E-04      12    1    1       0.1619423414E-01      0.3173028752E-01      0.3848817963E+00      0.1266526259E-04

    ------------------------------------------------
       NWT REQUIRED            4 OUTER ITERATIONS 
       AND A TOTAL OF         14 INNER ITERATIONS.
    ------------------------------------------------
                                                   Max.-Head-Change                        Max.-Flux-Residual
  Residual-Control   Outer-Iter.   Inner-Iter.     Column Row Layer    Max.-Head-Change    Column Row Layer    Max.-Flux-Residual            L2-New               L2-Old           Solver-Max-Delh
          0                 1           5             7    3     1       0.2789895251E-01       6    3    1       0.1214076731E+02      0.4330596795E+02      0.3173028752E-01      0.2789895251E-01
          0                 2           4             7    3     1      -0.1712831602E-02       4    3    1      -0.9469743111E+00      0.3241439797E+01      0.4330596795E+02     -0.1712831602E-02
          0                 3           3             7    1     1      -0.1237283777E-03       9    1    1      -0.6589877396E-01      0.2258775283E+00      0.3241439797E+01     -0.1237283777E-03
          0                 4           2             5    1     1      -0.1365789163E-04       4    3    1      -0.8644286892E-02      0.2486732782E-01      0.2258775283E+00     -0.1365789163E-04

    ------------------------------------------------
       NWT REQUIRED            4 OUTER ITERATIONS 
       AND A TOTAL OF         14 INNER ITERATIONS.
    ------------------------------------------------
                                                   Max.-Head-Change                        Max.-Flux-Residual
  Residual-Control   Outer-Iter.   Inner-Iter.     Column Row Layer    Max.-Head-Change    Column Row Layer    Max.-Flux-Residual            L2-New               L2-Old           Solver-Max-Delh
          0                 1           5             6    3     1       0.2061722360E-01       6    3    1       0.8452937088E+01      0.3218439872E+02      0.2486732782E-01      0.2061722360E-01
          0                 2           3             7    3     1      -0.1235274443E-02       4    3    1      -0.6406774601E+00      0.2263400005E+01      0.3218439872E+02     -0.1235274443E-02
          0                 3           2             7    3     1      -0.9591519944E-04       9    3    1      -0.5005659908E-01      0.1711544249E+00      0.2263400005E+01     -0.9591519944E-04

    ------------------------------------------------
       NWT REQUIRED            3 OUTER ITERATIONS 
       AND A TOTAL OF         10 INNER ITERATIONS.
    ------------------------------------------------
                                                   Max.-Head-Change                        Max.-Flux-Residual
  Residual-Control   Outer-Iter.   Inner-Iter.     Column Row Layer    Max.-Head-Change    Column Row Layer    Max.-Flux-Residual            L2-New               L2-Old           Solver-Max-Delh
          0                 1           5             6    1     1       0.1256452829E-01       1    1    1       0.5084583261E+01      0.2138608705E+02      0.1711544249E+00      0.1256452829E-01
          0                 2           3             7    1     1      -0.7459277546E-03       1    1    1      -0.3796543297E+00      0.1495757215E+01      0.2138608705E+02     -0.7459277546E-03
          0                 3           2             7    1     1      -0.5794360294E-04      12    1    1      -0.2898794872E-01      0.1151424406E+00      0.1495757215E+01     -0.5794360294E-04

    ------------------------------------------------
       NWT REQUIRED            3 OUTER ITERATIONS 
       AND A TOTAL OF         10 INNER ITERATIONS.
    ------------------------------------------------
                                                   Max.-Head-Change                        Max.-Flux-Residual
  Residual-Control   Outer-Iter.   Inner-Iter.     Column Row Layer    Max.-Head-Change    Column Row Layer    Max.-Flux-Residual            L2-New               L2-Old           Solver-Max-Delh
          0                 1           4             6    1     1       0.6769943388E-02       1    1    1       0.3840228816E+01      0.1289519006E+02      0.1151424406E+00      0.6769943388E-02
          0                 2           3             7    1     1      -0.3960094651E-03       1    1    1      -0.2947915837E+00      0.9123343717E+00      0.1289519006E+02     -0.3960094651E-03
          0                 3           2             5    1     1      -0.2962550573E-04      12    3    1      -0.2283612019E-01      0.6555926324E-01      0.9123343717E+00     -0.2962550573E-04

    ------------------------------------------------
       NWT REQUIRED            3 OUTER ITERATIONS 
       AND A TOTAL OF          9 INNER ITERATIONS.
    ------------------------------------------------
                                                   Max.-Head-Change                        Max.-Flux-Residual
  Residual-Control   Outer-Iter.   Inner-Iter.     Column Row Layer    Max.-Head-Change    Column Row Layer    Max.-Flux-Residual            L2-New               L2-Old           Solver-Max-Delh
          0                 1           4             6    1     1       0.3346814213E-02       1    3    1       0.2442621389E+01      0.7254927359E+01      0.6555926324E-01      0.3346814213E-02
          0                 2           3             1    2     1      -0.2056610024E-03       1    3    1      -0.1882278465E+00      0.5154199830E+00      0.7254927359E+01     -0.2056610024E-03
          0                 3           2            12    3     1      -0.1819784102E-04      12    3    1      -0.1612415363E-01      0.4306660685E-01      0.5154199830E+00     -0.1819784102E-04

    ------------------------------------------------
       NWT REQUIRED            3 OUTER ITERATIONS 
       AND A TOTAL OF          9 INNER ITERATIONS.
    ------------------------------------------------
                                                   Max.-Head-Change                        Max.-Flux-Residual
  Residual-Control   Outer-Iter.   Inner-Iter.     Column Row Layer    Max.-Head-Change    Column Row Layer    Max.-Flux-Residual            L2-New               L2-Old           Solver-Max-Delh
          0                 1           4            12    2     1       0.1845003417E-02       1    1    1       0.1408075971E+01      0.3856859965E+01      0.4306660685E-01      0.1845003417E-02
          0                 2           3            12    1     1      -0.1185201549E-03       1    1    1      -0.1191751932E+00      0.2787970391E+00      0.3856859965E+01     -0.1185201549E-03
          0                 3           2             5    1     1      -0.1429327684E-04      12    2    1      -0.8658946841E-02      0.3076749808E-01      0.2787970391E+00     -0.1429327684E-04

    ------------------------------------------------
       NWT REQUIRED            3 OUTER ITERATIONS 
       AND A TOTAL OF          9 INNER ITERATIONS.
    ------------------------------------------------
                                                   Max.-Head-Change                        Max.-Flux-Residual
  Residual-Control   Outer-Iter.   Inner-Iter.     Column Row Layer    Max.-Head-Change    Column Row Layer    Max.-Flux-Residual            L2-New               L2-Old           Solver-Max-Delh
          0                 1           4            12    2     1       0.9724624249E-03       1    1    1       0.7405589876E+00      0.1946108143E+01      0.3076749808E-01      0.9724624249E-03
          0                 2           3             1    2     1      -0.6663127222E-04      12    3    1      -0.6048074027E-01      0.1471752994E+00      0.1946108143E+01     -0.6663127222E-04

    ------------------------------------------------
       NWT REQUIRED            2 OUTER ITERATIONS 
       AND A TOTAL OF          7 INNER ITERATIONS.
    ------------------------------------------------
                                                   Max.-Head-Change                        Max.-Flux-Residual
  Residual-Control   Outer-Iter.   Inner-Iter.     Column Row Layer    Max.-Head-Change    Column Row Layer    Max.-Flux-Residual            L2-New               L2-Old           Solver-Max-Delh
          0                 1           3            12    2     1       0.4701285209E-03       1    3    1       0.3598456812E+00      0.9143576783E+00      0.1471752994E+00      0.4701285209E-03
          0                 2           2            12    2     2      -0.3320952584E-04      12    1    1      -0.3287478350E-01      0.6687919207E-01      0.9143576783E+00     -0.3320952584E-04

    ------------------------------------------------
       NWT REQUIRED            2 OUTER ITERATIONS 
       AND A TOTAL OF          5 INNER ITERATIONS.
    ------------------------------------------------
                                                   Max.-Head-Change                        Max.-Flux-Residual
  Residual-Control   Outer-Iter.   Inner-Iter.     Column Row Layer    Max.-Head-Change    Column Row Layer    Max.-Flux-Residual            L2-New               L2-Old           Solver-Max-Delh
          0                 1           3            12    2     1       0.2176126706E-03      12    1    1       0.1686821812E+00      0.4211131769E+00      0.6687919207E-01      0.2176126706E-03
          0                 2           2            12    2     1      -0.1874902863E-04      12    3    1      -0.1856184559E-01      0.3728671699E-01      0.4211131769E+00     -0.1874902863E-04

    ------------------------------------------------
       NWT REQUIRED            2 OUTER ITERATIONS 
       AND A TOTAL OF          5 INNER ITERATIONS.
    ------------------------------------------------
                                                   Max.-Head-Change                        Max.-Flux-Residual
  Residual-Control   Outer-Iter.   Inner-Iter.     Column Row Layer    Max.-Head-Change    Column Row Layer    Max.-Flux-Residual            L2-New               L2-Old           Solver-Max-Delh
          0                 1           3            12    3     2       0.1054305421E-03      12    1    1       0.8235349436E-01      0.1907428477E+00      0.3728671699E-01      0.1054305421E-03
          0                 2           2             1    3     1      -0.8844161644E-05       1    3    1      -0.1142898150E-01      0.2145132853E-01      0.1907428477E+00     -0.8844161644E-05

    ------------------------------------------------
       NWT REQUIRED            2 OUTER ITERATIONS 
       AND A TOTAL OF          5 INNER ITERATIONS.
    ------------------------------------------------

 OUTPUT CONTROL FOR STRESS PERIOD      1   TIME STEP     1
    SAVE HEAD FOR ALL LAYERS
    SAVE BUDGET
 UBDSV1 SAVING "         STORAGE" ON UNIT7012 AT TIME STEP    1, STRESS PERIOD   1
 UBDSV2 SAVING "   CONSTANT HEAD" ON UNIT7012 AT TIME STEP    1, STRESS PERIOD   1
 UBDSV1 SAVING "FLOW RIGHT FACE " ON UNIT7012 AT TIME STEP    1, STRESS PERIOD   1
 UBDSV1 SAVING "FLOW FRONT FACE " ON UNIT7012 AT TIME STEP    1, STRESS PERIOD   1
 UBDSV1 SAVING "FLOW LOWER FACE " ON UNIT7012 AT TIME STEP    1, STRESS PERIOD   1
 UBDSV4 SAVING " GHOST-NODE HEAD" ON UNIT7012 AT TIME STEP    1, STRESS PERIOD   1

 HEAD WILL BE SAVED ON UNIT 2212 AT END OF TIME STEP     1, STRESS PERIOD      1
1
  FLUX ACROSS PARENT-CHILD INTERFACE AT TIME STEP  1 IN STRESS PERIOD    1
  ------------------------------------------------------------------------
 G-N FLUX        PARENT        CHILD         DIFFERENCE      % DIFFERENCE
  RATE IN:      8.3729E+04    8.3729E+04    -3.7500E-01       -0.0004
 RATE OUT:      1.7757E+01    1.7757E+01     1.9455E-04        0.0011
 
 SOLVING FOR HEAD 
                                                   Max.-Head-Change                        Max.-Flux-Residual
  Residual-Control   Outer-Iter.   Inner-Iter.     Column Row Layer    Max.-Head-Change    Column Row Layer    Max.-Flux-Residual            L2-New               L2-Old           Solver-Max-Delh
          0                 1           7             7    2     1       0.8349204776E+01       2    2    1       0.2404275883E+04      0.1035666462E+05      0.2145132853E-01      0.8349204776E+01
          0                 2           7             7    2     1      -0.8545456468E+00       5    2    1      -0.4653398849E+03      0.1469022529E+04      0.1035666462E+05     -0.8545456468E+00
          0                 3           5             7    2     1      -0.4669663815E-01       7    2    1      -0.2802142174E+02      0.8556107321E+02      0.1469022529E+04     -0.4669663815E-01
          0                 4           4             7    2     1      -0.2366911399E-02       7    2    1      -0.1411342397E+01      0.4325780947E+01      0.8556107321E+02     -0.2366911399E-02
          0                 5           3             6    2     1      -0.1214622851E-03       7    2    1      -0.7051724661E-01      0.2168239916E+00      0.4325780947E+01     -0.1214622851E-03
          0                 6           2             2    1     1      -0.7196305516E-05       7    1    1      -0.6603337009E-02      0.2091149448E-01      0.2168239916E+00     -0.7196305516E-05

    ------------------------------------------------
       NWT REQUIRED            6 OUTER ITERATIONS 
       AND A TOTAL OF         28 INNER ITERATIONS.
    ------------------------------------------------
                                                   Max.-Head-Change                        Max.-Flux-Residual
  Residual-Control   Outer-Iter.   Inner-Iter.     Column Row Layer    Max.-Head-Change    Column Row Layer    Max.-Flux-Residual            L2-New               L2-Old           Solver-Max-Delh
          0                 1           7             6    1     1       0.1098915706E+01       1    1    1       0.5279934798E+03      0.2042210222E+04      0.2091149448E-01      0.1098915706E+01
          0                 2           6             6    1     1      -0.9375010105E-01       1    1    1      -0.5047446430E+02      0.2017036786E+03      0.2042210222E+04     -0.9375010105E-01
          0                 3           4             6    1     1      -0.4849500604E-02       1    1    1      -0.2693879671E+01      0.1048357536E+02      0.2017036786E+03     -0.4849500604E-02
          0                 4           3             6    1     1      -0.2488453434E-03       1    1    1      -0.1439618736E+00      0.5377702050E+00      0.1048357536E+02     -0.2488453434E-03
          0                 5           2             6    3     1      -0.1556062602E-04       1    3    1      -0.1255183743E-01      0.3433380548E-01      0.5377702050E+00     -0.1556062602E-04

    ------------------------------------------------
       NWT REQUIRED            5 OUTER ITERATIONS 
       AND A TOTAL OF         22 INNER ITERATIONS.
    ------------------------------------------------
                                                   Max.-Head-Change                        Max.-Flux-Residual
  Residual-Control   Outer-Iter.   Inner-Iter.     Column Row Layer    Max.-Head-Change    Column Row Layer    Max.-Flux-Residual            L2-New               L2-Old           Solver-Max-Delh
          0                 1           7             6    1     1       0.1575372490E+01       1    1    1       0.8448701158E+03      0.3105968492E+04      0.3433380548E-01      0.1575372490E+01
          0                 2           6             7    1     1      -0.1333540172E+00       1    1    1      -0.8099479185E+02      0.3057310074E+03      0.3105968492E+04     -0.1333540172E+00
          0                 3           4             6    1     1      -0.6998913501E-02       1    1    1      -0.4316423300E+01      0.1604125056E+02      0.3057310074E+03     -0.6998913501E-02
          0                 4           3             6    1     1      -0.3659359664E-03       1    3    1      -0.2398679999E+00      0.8470649216E+00      0.1604125056E+02     -0.3659359664E-03
          0                 5           2             7    3     1      -0.2139101954E-04       5    3    1      -0.1458541630E-01      0.4614175240E-01      0.8470649216E+00     -0.2139101954E-04

    ------------------------------------------------
       NWT REQUIRED            5 OUTER ITERATIONS 
       AND A TOTAL OF         22 INNER ITERATIONS.
    ------------------------------------------------
                                                   Max.-Head-Change                        Max.-Flux-Residual
  Residual-Control   Outer-Iter.   Inner-Iter.     Column Row Layer    Max.-Head-Change    Column Row Layer    Max.-Flux-Residual            L2-New               L2-Old           Solver-Max-Delh
          0                 1           7             6    1     1       0.1221698863E+01       1    1    1       0.6992503292E+03      0.2493488737E+04      0.4614175240E-01      0.1221698863E+01
          0                 2           6             7    3     1      -0.1027354072E+00       1    1    1      -0.6719489682E+02      0.2434898319E+03      0.2493488737E+04     -0.1027354072E+00
          0                 3           4             6    1     1      -0.5428731279E-02       1    1    1      -0.3578293841E+01      0.1285691086E+02      0.2434898319E+03     -0.5428731279E-02
          0                 4           3             6    1     1      -0.2918824771E-03       1    1    1      -0.2013243705E+00      0.6857880037E+00      0.1285691086E+02     -0.2918824771E-03
          0                 5           2             6    3     1      -0.2022357249E-04       6    3    1      -0.1456566976E-01      0.4023948065E-01      0.6857880037E+00     -0.2022357249E-04

    ------------------------------------------------
       NWT REQUIRED            5 OUTER ITERATIONS 
       AND A TOTAL OF         22 INNER ITERATIONS.
    ------------------------------------------------
                                                   Max.-Head-Change                        Max.-Flux-Residual
  Residual-Control   Outer-Iter.   Inner-Iter.     Column Row Layer    Max.-Head-Change    Column Row Layer    Max.-Flux-Residual            L2-New               L2-Old           Solver-Max-Delh
          0                 1           7             6    3     1       0.7706870681E+00       1    1    1       0.4732977788E+03      0.1626333647E+04      0.4023948065E-01      0.7706870681E+00
          0                 2           6             7    3     1      -0.6446804508E-01       1    1    1      -0.4555597627E+02      0.1578317712E+03      0.1626333647E+04     -0.6446804508E-01
          0                 3           4             6    3     1      -0.3421777618E-02       1    1    1      -0.2433295438E+01      0.8368186236E+01      0.1578317712E+03     -0.3421777618E-02
          0                 4           3             6    1     1      -0.1819686488E-03       1    3    1      -0.1315897334E+00      0.4430456761E+00      0.8368186236E+01     -0.1819686488E-03
          0                 5           2             5    1     1      -0.1062521985E-04      11    1    1      -0.7718290028E-02      0.2716370788E-01      0.4430456761E+00     -0.1062521985E-04

    ------------------------------------------------
       NWT REQUIRED            5 OUTER ITERATIONS 
       AND A TOTAL OF         22 INNER ITERATIONS.
    ------------------------------------------------
                                                   Max.-Head-Change                        Max.-Flux-Residual
  Residual-Control   Outer-Iter.   Inner-Iter.     Column Row Layer    Max.-Head-Change    Column Row Layer    Max.-Flux-Residual            L2-New               L2-Old           Solver-Max-Delh
          0                 1           6             6    3     1       0.4312226878E+00       1    3    1       0.2880206249E+03      0.9461214384E+03      0.2716370788E-01      0.4312226878E+00
          0                 2           5             7    3     1      -0.3593089844E-01       1    3    1      -0.2773988274E+02      0.9148367243E+02      0.9461214384E+03     -0.3593089844E-01
          0                 3           4             7    3     1      -0.1912302761E-02       1    1    1      -0.1478861520E+01      0.4853109339E+01      0.9148367243E+02     -0.1912302761E-02
          0                 4           3             5    3     1      -0.1036312521E-03       1    3    1      -0.8019335376E-01      0.2605952897E+00      0.4853109339E+01     -0.1036312521E-03
          0                 5           2             6    3     1      -0.5120541098E-05      12    3    1      -0.8019973728E-02      0.1746107917E-01      0.2605952897E+00     -0.5120541098E-05

    ------------------------------------------------
       NWT REQUIRED            5 OUTER ITERATIONS 
       AND A TOTAL OF         20 INNER ITERATIONS.
    ------------------------------------------------
                                                   Max.-Head-Change                        Max.-Flux-Residual
  Residual-Control   Outer-Iter.   Inner-Iter.     Column Row Layer    Max.-Head-Change    Column Row Layer    Max.-Flux-Residual            L2-New               L2-Old           Solver-Max-Delh
          0                 1           6             6    3     1       0.2205088202E+00       1    3    1       0.1629996682E+03      0.5087553563E+03      0.1746107917E-01      0.2205088202E+00
          0                 2           5             7    3     1      -0.1833335236E-01       1    3    1      -0.1569836483E+02      0.4909740076E+02      0.5087553563E+03     -0.1833335236E-01
          0                 3           4             6    3     1      -0.9776303149E-03       1    3    1      -0.8450146650E+00      0.2611096654E+01      0.4909740076E+02     -0.9776303149E-03
          0                 4           3             8    3     1      -0.5395743140E-04      12    1    1      -0.4824244778E-01      0.1421948601E+00      0.2611096654E+01     -0.5395743140E-04

    ------------------------------------------------
       NWT REQUIRED            4 OUTER ITERATIONS 
       AND A TOTAL OF         18 INNER ITERATIONS.
    ------------------------------------------------
                                                   Max.-Head-Change                        Max.-Flux-Residual
  Residual-Control   Outer-Iter.   Inner-Iter.     Column Row Layer    Max.-Head-Change    Column Row Layer    Max.-Flux-Residual            L2-New               L2-Old           Solver-Max-Delh
          0                 1           6            12    3     1       0.1110365459E+00       1    3    1       0.8673262632E+02      0.2569631985E+03      0.1421948601E+00      0.1110365459E+00
          0                 2           5            12    3     1      -0.9314976991E-02       1    3    1      -0.8354227667E+01      0.2478260616E+02      0.2569631985E+03     -0.9314976991E-02
          0                 3           4            12    1     1      -0.4892581342E-03       1    3    1      -0.4449445005E+00      0.1315716939E+01      0.2478260616E+02     -0.4892581342E-03
          0                 4           2             1    2     1      -0.2850669243E-04      12    1    1      -0.2380169171E-01      0.7103222129E-01      0.1315716939E+01     -0.2850669243E-04

    ------------------------------------------------
       NWT REQUIRED            4 OUTER ITERATIONS 
       AND A TOTAL OF         17 INNER ITERATIONS.
    ------------------------------------------------
                                                   Max.-Head-Change                        Max.-Flux-Residual
  Residual-Control   Outer-Iter.   Inner-Iter.     Column Row Layer    Max.-Head-Change    Column Row Layer    Max.-Flux-Residual            L2-New               L2-Old           Solver-Max-Delh
          0                 1           5            12    2     1       0.5500596214E-01       1    3    1       0.4354363856E+02      0.1226756243E+03      0.7103222129E-01      0.5500596214E-01
          0                 2           4            12    2     1      -0.4616611076E-02       1    3    1      -0.4191396939E+01      0.1183336409E+02      0.1226756243E+03     -0.4616611076E-02
          0                 3           3             1    2     1      -0.2434406876E-03       1    3    1      -0.2253721631E+00      0.6290346993E+00      0.1183336409E+02     -0.2434406876E-03
          0                 4           2             1    3     1      -0.1596925478E-04       1    3    1      -0.1778983738E-01      0.3891868170E-01      0.6290346993E+00     -0.1596925478E-04

    ------------------------------------------------
       NWT REQUIRED            4 OUTER ITERATIONS 
       AND A TOTAL OF         14 INNER ITERATIONS.
    ------------------------------------------------
                                                   Max.-Head-Change                        Max.-Flux-Residual
  Residual-Control   Outer-Iter.   Inner-Iter.     Column Row Layer    Max.-Head-Change    Column Row Layer    Max.-Flux-Residual            L2-New               L2-Old           Solver-Max-Delh
          0                 1           5            12    2     1       0.2572933539E-01       1    3    1       0.2058589139E+02      0.5531257900E+02      0.3891868170E-01      0.2572933539E-01
          0                 2           4            12    2     1      -0.2161140939E-02       1    3    1      -0.1982071447E+01      0.5338685162E+01      0.5531257900E+02     -0.2161140939E-02
          0                 3           3            12    1     1      -0.1129931349E-03       1    3    1      -0.1079799852E+00      0.2826021838E+00      0.5338685162E+01     -0.1129931349E-03
          0                 4           2            10    3     1      -0.1068117615E-04      12    2    1      -0.7714911364E-02      0.2464489383E-01      0.2826021838E+00     -0.1068117615E-04

    ------------------------------------------------
       NWT REQUIRED            4 OUTER ITERATIONS 
       AND A TOTAL OF         14 INNER ITERATIONS.
    ------------------------------------------------
                                                   Max.-Head-Change                        Max.-Flux-Residual
  Residual-Control   Outer-Iter.   Inner-Iter.     Column Row Layer    Max.-Head-Change    Column Row Layer    Max.-Flux-Residual            L2-New               L2-Old           Solver-Max-Delh
          0                 1           5            12    2     1       0.1119993466E-01       1    3    1       0.9039187464E+01      0.2333080321E+02      0.2464489383E-01      0.1119993466E-01
          0                 2           4            12    2     1      -0.9399009428E-03       1    3    1      -0.8701407610E+00      0.2249579766E+01      0.2333080321E+02     -0.9399009428E-03
          0                 3           3             1    3     1      -0.5281001771E-04       1    3    1      -0.5283703608E-01      0.1232172354E+00      0.2249579766E+01     -0.5281001771E-04

    ------------------------------------------------
       NWT REQUIRED            3 OUTER ITERATIONS 
       AND A TOTAL OF         12 INNER ITERATIONS.
    ------------------------------------------------
                                                   Max.-Head-Change                        Max.-Flux-Residual
  Residual-Control   Outer-Iter.   Inner-Iter.     Column Row Layer    Max.-Head-Change    Column Row Layer    Max.-Flux-Residual            L2-New               L2-Old           Solver-Max-Delh
          0                 1           4            12    2     2       0.4626100491E-02       1    1    1       0.3608629287E+01      0.9009596220E+01      0.1232172354E+00      0.4626100491E-02
          0                 2           3            12    2     2      -0.3975753776E-03      12    1    1      -0.3498641634E+00      0.8715899867E+00      0.9009596220E+01     -0.3975753776E-03
          0                 3           2            12    2     2      -0.1969147314E-04       1    1    1      -0.2019402001E-01      0.4437469257E-01      0.8715899867E+00     -0.1969147314E-04

    ------------------------------------------------
       NWT REQUIRED            3 OUTER ITERATIONS 
       AND A TOTAL OF          9 INNER ITERATIONS.
    ------------------------------------------------
                                                   Max.-Head-Change                        Max.-Flux-Residual
  Residual-Control   Outer-Iter.   Inner-Iter.     Column Row Layer    Max.-Head-Change    Column Row Layer    Max.-Flux-Residual            L2-New               L2-Old           Solver-Max-Delh
          0                 1           4            12    2     2       0.1814852793E-02      12    1    1       0.1236993308E+01      0.3036841740E+01      0.4437469257E-01      0.1814852793E-02
          0                 2           3            12    2     2      -0.1563839557E-03      12    1    1      -0.1241896013E+00      0.2937182148E+00      0.3036841740E+01     -0.1563839557E-03
          0                 3           2            12    2     1      -0.9361114455E-05      12    2    1      -0.7611807960E-02      0.2115369813E-01      0.2937182148E+00     -0.9361114455E-05

    ------------------------------------------------
       NWT REQUIRED            3 OUTER ITERATIONS 
       AND A TOTAL OF          9 INNER ITERATIONS.
    ------------------------------------------------
                                                   Max.-Head-Change                        Max.-Flux-Residual
  Residual-Control   Outer-Iter.   Inner-Iter.     Column Row Layer    Max.-Head-Change    Column Row Layer    Max.-Flux-Residual            L2-New               L2-Old           Solver-Max-Delh
          0                 1           4            12    2     2       0.5987173721E-03      12    3    1       0.3032486470E+00      0.8818166226E+00      0.2115369813E-01      0.5987173721E-03
          0                 2           2            12    3     2      -0.5101875431E-04      12    3    1      -0.2602307408E-01      0.7941531740E-01      0.8818166226E+00     -0.5101875431E-04

    ------------------------------------------------
       NWT REQUIRED            2 OUTER ITERATIONS 
       AND A TOTAL OF          6 INNER ITERATIONS.
    ------------------------------------------------
                                                   Max.-Head-Change                        Max.-Flux-Residual
  Residual-Control   Outer-Iter.   Inner-Iter.     Column Row Layer    Max.-Head-Change    Column Row Layer    Max.-Flux-Residual            L2-New               L2-Old           Solver-Max-Delh
          0                 1           3             6    3     1      -0.2408054944E-03       9    3    1      -0.1190721057E+00      0.4110554147E+00      0.7941531740E-01     -0.2408054944E-03
          0                 2           2             1    2     3      -0.2067959964E-04       4    1    1       0.1750698721E-01      0.4335986029E-01      0.4110554147E+00     -0.2067959964E-04

    ------------------------------------------------
       NWT REQUIRED            2 OUTER ITERATIONS 
       AND A TOTAL OF          5 INNER ITERATIONS.
    ------------------------------------------------
                                                   Max.-Head-Change                        Max.-Flux-Residual
  Residual-Control   Outer-Iter.   Inner-Iter.     Column Row Layer    Max.-Head-Change    Column Row Layer    Max.-Flux-Residual            L2-New               L2-Old           Solver-Max-Delh
          0                 1           3             7    1     1      -0.1738639783E-03       1    3    1      -0.1120420608E+00      0.3501545086E+00      0.4335986029E-01     -0.1738639783E-03
          0                 2           2             4    1     1       0.1643251954E-04       1    3    1       0.1928838040E-01      0.4311554626E-01      0.3501545086E+00      0.1643251954E-04

    ------------------------------------------------
       NWT REQUIRED            2 OUTER ITERATIONS 
       AND A TOTAL OF          5 INNER ITERATIONS.
    ------------------------------------------------
                                                   Max.-Head-Change                        Max.-Flux-Residual
  Residual-Control   Outer-Iter.   Inner-Iter.     Column Row Layer    Max.-Head-Change    Column Row Layer    Max.-Flux-Residual            L2-New               L2-Old           Solver-Max-Delh
          0                 1           3             8    3     1      -0.1121568012E-03       1    1    1      -0.9072294889E-01      0.2576697661E+00      0.4311554626E-01     -0.1121568012E-03
          0                 2           2             5    1     1       0.9809333534E-05      12    2    1       0.8897991211E-02      0.2787555417E-01      0.2576697661E+00      0.9809333534E-05

    ------------------------------------------------
       NWT REQUIRED            2 OUTER ITERATIONS 
       AND A TOTAL OF          5 INNER ITERATIONS.
    ------------------------------------------------

 OUTPUT CONTROL FOR STRESS PERIOD      1   TIME STEP     2
    SAVE BUDGET
 UBDSV1 SAVING "         STORAGE" ON UNIT7012 AT TIME STEP    2, STRESS PERIOD   1
 UBDSV2 SAVING "   CONSTANT HEAD" ON UNIT7012 AT TIME STEP    2, STRESS PERIOD   1
 UBDSV1 SAVING "FLOW RIGHT FACE " ON UNIT7012 AT TIME STEP    2, STRESS PERIOD   1
 UBDSV1 SAVING "FLOW FRONT FACE " ON UNIT7012 AT TIME STEP    2, STRESS PERIOD   1
 UBDSV1 SAVING "FLOW LOWER FACE " ON UNIT7012 AT TIME STEP    2, STRESS PERIOD   1
 UBDSV4 SAVING " GHOST-NODE HEAD" ON UNIT7012 AT TIME STEP    2, STRESS PERIOD   1
1
  VOLUMETRIC BUDGET FOR ENTIRE MODEL AT END OF TIME STEP    2 IN STRESS PERIOD      1
  ------------------------------------------------------------------------------

     CUMULATIVE VOLUMES      L**3       RATES FOR THIS TIME STEP      L**3/T
     ------------------                 ------------------------

           IN:                                      IN:
           ---                                      ---
             STORAGE =        7520.0210               STORAGE =          21.6431
       CONSTANT HEAD =           0.0000         CONSTANT HEAD =           0.0000
     GHOST-NODE HEAD =     1486235.3750       GHOST-NODE HEAD =       13985.0537

            TOTAL IN =     1493755.3750              TOTAL IN =       14006.6973

          OUT:                                     OUT:
          ----                                     ----
             STORAGE =     1493067.2500               STORAGE =       13979.2031
       CONSTANT HEAD =           0.0000         CONSTANT HEAD =           0.0000
     GHOST-NODE HEAD =         687.8961       GHOST-NODE HEAD =          27.4694

           TOTAL OUT =     1493755.1250             TOTAL OUT =       14006.6729

            IN - OUT =           0.2500              IN - OUT =       2.4414E-02

 PERCENT DISCREPANCY =           0.00     PERCENT DISCREPANCY =           0.00






          TIME SUMMARY AT END OF TIME STEP     2 IN STRESS PERIOD      1
                    SECONDS     MINUTES      HOURS       DAYS        YEARS
                    -----------------------------------------------------------
   TIME STEP LENGTH 1.31414E+06  21902.      365.04      15.210     4.16427E-02
 STRESS PERIOD TIME 2.62829E+06  43805.      730.08      30.420     8.32854E-02
         TOTAL TIME 2.62829E+06  43805.      730.08      30.420     8.32854E-02
1
1
  FLUX ACROSS PARENT-CHILD INTERFACE AT TIME STEP  2 IN STRESS PERIOD    1
  ------------------------------------------------------------------------
 G-N FLUX        PARENT        CHILD         DIFFERENCE      % DIFFERENCE
  RATE IN:      1.3984E+04    1.3985E+04    -7.7441E-01       -0.0055
 RATE OUT:      2.7471E+01    2.7469E+01     1.4629E-03        0.0053
1
                            STRESS PERIOD NO.      2, LENGTH =   30.42000    
                            -----------------------------------------------

                              NUMBER OF TIME STEPS =     2

                               MULTIPLIER FOR DELT =     1.000

                            INITIAL TIME STEP SIZE =   15.21000    
 
 SOLVING FOR HEAD 
                                                   Max.-Head-Change                        Max.-Flux-Residual
  Residual-Control   Outer-Iter.   Inner-Iter.     Column Row Layer    Max.-Head-Change    Column Row Layer    Max.-Flux-Residual            L2-New               L2-Old           Solver-Max-Delh
          0                 1           7             7    2     1       0.2379278145E+01       7    1    1       0.7054574072E+03      0.3430826219E+04      0.2787555417E-01      0.2379278145E+01
          0                 2           6             7    2     1      -0.2130918617E+00       7    1    1      -0.6747986949E+02      0.3407161871E+03      0.3430826219E+04     -0.2130918617E+00
          0                 3           4             7    2     1      -0.1078330791E-01       8    1    1      -0.3338545481E+01      0.1714000403E+02      0.3407161871E+03     -0.1078330791E-01
          0                 4           3             7    2     1      -0.5425487062E-03       9    1    1      -0.1691298110E+00      0.8675173731E+00      0.1714000403E+02     -0.5425487062E-03
          0                 5           2             7    2     1      -0.2759526439E-04       1    3    1      -0.1282087236E-01      0.4696395211E-01      0.8675173731E+00     -0.2759526439E-04

    ------------------------------------------------
       NWT REQUIRED            5 OUTER ITERATIONS 
       AND A TOTAL OF         22 INNER ITERATIONS.
    ------------------------------------------------
                                                   Max.-Head-Change                        Max.-Flux-Residual
  Residual-Control   Outer-Iter.   Inner-Iter.     Column Row Layer    Max.-Head-Change    Column Row Layer    Max.-Flux-Residual            L2-New               L2-Old           Solver-Max-Delh
          0                 1           6             7    3     1       0.6145387766E+00      12    3    1       0.3337434564E+03      0.1266172393E+04      0.4696395211E-01      0.6145387766E+00
          0                 2           5             7    3     1      -0.5305463879E-01      12    3    1      -0.3330255129E+02      0.1263550803E+03      0.1266172393E+04     -0.5305463879E-01
          0                 3           4             7    3     1      -0.2671280367E-02       1    3    1      -0.1687402965E+01      0.6390930666E+01      0.1263550803E+03     -0.2671280367E-02
          0                 4           3             6    1     1      -0.1314218018E-03      12    1    1      -0.8770027495E-01      0.3197230471E+00      0.6390930666E+01     -0.1314218018E-03
          0                 5           2             7    1     1      -0.1116915748E-04       7    1    1      -0.7194497040E-02      0.2525170061E-01      0.3197230471E+00     -0.1116915748E-04

    ------------------------------------------------
       NWT REQUIRED            5 OUTER ITERATIONS 
       AND A TOTAL OF         20 INNER ITERATIONS.
    ------------------------------------------------
                                                   Max.-Head-Change                        Max.-Flux-Residual
  Residual-Control   Outer-Iter.   Inner-Iter.     Column Row Layer    Max.-Head-Change    Column Row Layer    Max.-Flux-Residual            L2-New               L2-Old           Solver-Max-Delh
          0                 1           6             7    3     1       0.4412467316E+00       1    3    1       0.2527454121E+03      0.9254224565E+03      0.2525170061E-01      0.4412467316E+00
          0                 2           5             7    3     1      -0.3797181771E-01      12    3    1      -0.2500762981E+02      0.9206447313E+02      0.9254224565E+03     -0.3797181771E-01
          0                 3           4             7    3     1      -0.1915384963E-02       1    1    1      -0.1280622389E+01      0.4668520421E+01      0.9206447313E+02     -0.1915384963E-02
          0                 4           3             6    1     1      -0.1004397470E-03       1    3    1      -0.6841514725E-01      0.2395126939E+00      0.4668520421E+01     -0.1004397470E-03
          0                 5           2             6    3     1      -0.7553150687E-05       7    1    1      -0.7723198039E-02      0.2120817679E-01      0.2395126939E+00     -0.7553150687E-05

    ------------------------------------------------
       NWT REQUIRED            5 OUTER ITERATIONS 
       AND A TOTAL OF         20 INNER ITERATIONS.
    ------------------------------------------------
                                                   Max.-Head-Change                        Max.-Flux-Residual
  Residual-Control   Outer-Iter.   Inner-Iter.     Column Row Layer    Max.-Head-Change    Column Row Layer    Max.-Flux-Residual            L2-New               L2-Old           Solver-Max-Delh
          0                 1           6             7    3     1       0.2670933121E+00       1    1    1       0.1643726764E+03      0.5756686939E+03      0.2120817679E-01      0.2670933121E+00
          0                 2           5             7    3     1      -0.2293070141E-01       1    1    1      -0.1618457191E+02      0.5714208862E+02      0.5756686939E+03     -0.2293070141E-01
          0                 3           4             7    3     1      -0.1157082294E-02       1    3    1      -0.8294993065E+00      0.2899149846E+01      0.5714208862E+02     -0.1157082294E-02
          0                 4           3             8    3     1      -0.6097178331E-04       1    1    1      -0.4358322371E-01      0.1488929603E+00      0.2899149846E+01     -0.6097178331E-04

    ------------------------------------------------
       NWT REQUIRED            4 OUTER ITERATIONS 
       AND A TOTAL OF         18 INNER ITERATIONS.
    ------------------------------------------------
                                                   Max.-Head-Change                        Max.-Flux-Residual
  Residual-Control   Outer-Iter.   Inner-Iter.     Column Row Layer    Max.-Head-Change    Column Row Layer    Max.-Flux-Residual            L2-New               L2-Old           Solver-Max-Delh
          0                 1           6             7    3     1       0.1448861798E+00       1    1    1       0.9762987845E+02      0.3246134138E+03      0.1488929603E+00      0.1448861798E+00
          0                 2           5             7    3     1      -0.1242168378E-01       1    1    1      -0.9605849655E+01      0.3216884398E+02      0.3246134138E+03     -0.1242168378E-01
          0                 3           4             7    3     1      -0.6288089011E-03       1    1    1      -0.4970180438E+00      0.1636703972E+01      0.3216884398E+02     -0.6288089011E-03
          0                 4           2             7    3     1      -0.3308788804E-04      12    1    1      -0.2680815646E-01      0.8350906354E-01      0.1636703972E+01     -0.3308788804E-04

    ------------------------------------------------
       NWT REQUIRED            4 OUTER ITERATIONS 
       AND A TOTAL OF         17 INNER ITERATIONS.
    ------------------------------------------------
                                                   Max.-Head-Change                        Max.-Flux-Residual
  Residual-Control   Outer-Iter.   Inner-Iter.     Column Row Layer    Max.-Head-Change    Column Row Layer    Max.-Flux-Residual            L2-New               L2-Old           Solver-Max-Delh
          0                 1           6             7    3     1       0.7206220541E-01       1    1    1       0.5421072420E+02      0.1703869335E+03      0.8350906354E-01      0.7206220541E-01
          0                 2           4             7    3     1      -0.6172507332E-02       1    1    1      -0.5333350702E+01      0.1686767522E+02      0.1703869335E+03     -0.6172507332E-02
          0                 3           3             6    3     1      -0.3145707764E-03       1    3    1      -0.2808915597E+00      0.8638788765E+00      0.1686767522E+02     -0.3145707764E-03
          0                 4           2             8    3     1      -0.2024671813E-04      12    3    1      -0.1766355941E-01      0.5140382669E-01      0.8638788765E+00     -0.2024671813E-04

    ------------------------------------------------
       NWT REQUIRED            4 OUTER ITERATIONS 
       AND A TOTAL OF         15 INNER ITERATIONS.
    ------------------------------------------------
                                                   Max.-Head-Change                        Max.-Flux-Residual
  Residual-Control   Outer-Iter.   Inner-Iter.     Column Row Layer    Max.-Head-Change    Column Row Layer    Max.-Flux-Residual            L2-New               L2-Old           Solver-Max-Delh
          0                 1           5            12    3     1       0.3589215195E-01       1    3    1       0.2839051616E+02      0.8425811048E+02      0.5140382669E-01      0.3589215195E-01
          0                 2           4            12    3     1      -0.3092850356E-02       1    1    1      -0.2795665258E+01      0.8343136928E+01      0.8425811048E+02     -0.3092850356E-02
[...]
          0                 3           2            12    3     1      -0.2438598314E-04      12    3    1      -0.2316772105E-01      0.6162684701E-01      0.1124959894E+01     -0.2438598314E-04

    ------------------------------------------------
       NWT REQUIRED            3 OUTER ITERATIONS 
       AND A TOTAL OF         10 INNER ITERATIONS.
    ------------------------------------------------
                                                   Max.-Head-Change                        Max.-Flux-Residual
  Residual-Control   Outer-Iter.   Inner-Iter.     Column Row Layer    Max.-Head-Change    Column Row Layer    Max.-Flux-Residual            L2-New               L2-Old           Solver-Max-Delh
          0                 1           4            12    3     2       0.1832463287E-02       1    3    1       0.1375466739E+01      0.3742845831E+01      0.6162684701E-01      0.1832463287E-02
          0                 2           3            12    3     2      -0.1587241385E-03      12    3    1      -0.1390496051E+00      0.3766194616E+00      0.3742845831E+01     -0.1587241385E-03
          0                 3           2             1    3     1      -0.1290286396E-04       1    3    1      -0.1246472553E-01      0.3222833325E-01      0.3766194616E+00     -0.1290286396E-04

    ------------------------------------------------
       NWT REQUIRED            3 OUTER ITERATIONS 
       AND A TOTAL OF          9 INNER ITERATIONS.
    ------------------------------------------------
                                                   Max.-Head-Change                        Max.-Flux-Residual
  Residual-Control   Outer-Iter.   Inner-Iter.     Column Row Layer    Max.-Head-Change    Column Row Layer    Max.-Flux-Residual            L2-New               L2-Old           Solver-Max-Delh
          0                 1           3             1    3     2       0.5724701025E-03       1    3    1       0.3399293529E+00      0.8406516742E+00      0.3222833325E-01      0.5724701025E-03
          0                 2           3             1    3     2      -0.4932306729E-04       1    3    1      -0.3350817144E-01      0.7876960412E-01      0.8406516742E+00     -0.4932306729E-04

    ------------------------------------------------
       NWT REQUIRED            2 OUTER ITERATIONS 
       AND A TOTAL OF          6 INNER ITERATIONS.
    ------------------------------------------------
                                                   Max.-Head-Change                        Max.-Flux-Residual
  Residual-Control   Outer-Iter.   Inner-Iter.     Column Row Layer    Max.-Head-Change    Column Row Layer    Max.-Flux-Residual            L2-New               L2-Old           Solver-Max-Delh
          0                 1           3             1    2     3       0.1437018873E-03       9    3    1      -0.7238906500E-01      0.2251918395E+00      0.7876960412E-01      0.1437018873E-03
          0                 2           2             8    3     1       0.1397926719E-04       8    3    1       0.1232142455E-01      0.2980211922E-01      0.2251918395E+00      0.1397926719E-04

    ------------------------------------------------
       NWT REQUIRED            2 OUTER ITERATIONS 
       AND A TOTAL OF          5 INNER ITERATIONS.
    ------------------------------------------------
                                                   Max.-Head-Change                        Max.-Flux-Residual
  Residual-Control   Outer-Iter.   Inner-Iter.     Column Row Layer    Max.-Head-Change    Column Row Layer    Max.-Flux-Residual            L2-New               L2-Old           Solver-Max-Delh
          0                 1           3            12    1     1      -0.1588176405E-03      12    1    1      -0.1238935012E+00      0.3569690877E+00      0.2980211922E-01     -0.1588176405E-03
          0                 2           2            12    3     1       0.2003819635E-04      12    3    1       0.2277944077E-01      0.4531203833E-01      0.3569690877E+00      0.2003819635E-04

    ------------------------------------------------
       NWT REQUIRED            2 OUTER ITERATIONS 
       AND A TOTAL OF          5 INNER ITERATIONS.
    ------------------------------------------------
                                                   Max.-Head-Change                        Max.-Flux-Residual
  Residual-Control   Outer-Iter.   Inner-Iter.     Column Row Layer    Max.-Head-Change    Column Row Layer    Max.-Flux-Residual            L2-New               L2-Old           Solver-Max-Delh
          0                 1           3            12    1     1      -0.1320955364E-03      12    1    1      -0.1046648792E+00      0.3120199670E+00      0.4531203833E-01     -0.1320955364E-03
          0                 2           2            12    1     1       0.1698046487E-04       1    1    1       0.1915565773E-01      0.4426537945E-01      0.3120199670E+00      0.1698046487E-04

    ------------------------------------------------
       NWT REQUIRED            2 OUTER ITERATIONS 
       AND A TOTAL OF          5 INNER ITERATIONS.
    ------------------------------------------------
          0                 1           3            12    3     1      -0.9786585266E-04      12    3    1      -0.7772940979E-01      0.1970299002E+00      0.4426537945E-01     -0.9786585266E-04

    ------------------------------------------------
       NWT REQUIRED            1 OUTER ITERATIONS 
       AND A TOTAL OF          3 INNER ITERATIONS.
    ------------------------------------------------

 OUTPUT CONTROL FOR STRESS PERIOD     24   TIME STEP     1
    SAVE BUDGET
 UBDSV1 SAVING "         STORAGE" ON UNIT7012 AT TIME STEP    1, STRESS PERIOD  24
 UBDSV2 SAVING "   CONSTANT HEAD" ON UNIT7012 AT TIME STEP    1, STRESS PERIOD  24
 UBDSV1 SAVING "FLOW RIGHT FACE " ON UNIT7012 AT TIME STEP    1, STRESS PERIOD  24
 UBDSV1 SAVING "FLOW FRONT FACE " ON UNIT7012 AT TIME STEP    1, STRESS PERIOD  24
 UBDSV1 SAVING "FLOW LOWER FACE " ON UNIT7012 AT TIME STEP    1, STRESS PERIOD  24
 UBDSV4 SAVING " GHOST-NODE HEAD" ON UNIT7012 AT TIME STEP    1, STRESS PERIOD  24
1
  FLUX ACROSS PARENT-CHILD INTERFACE AT TIME STEP  1 IN STRESS PERIOD   24
  ------------------------------------------------------------------------
 G-N FLUX        PARENT        CHILD         DIFFERENCE      % DIFFERENCE
  RATE IN:      1.9938E+03    1.9941E+03    -3.1836E-01       -0.0160
 RATE OUT:      1.6993E+03    1.6991E+03     1.9873E-01        0.0117
 
 SOLVING FOR HEAD 
                                                   Max.-Head-Change                        Max.-Flux-Residual
  Residual-Control   Outer-Iter.   Inner-Iter.     Column Row Layer    Max.-Head-Change    Column Row Layer    Max.-Flux-Residual            L2-New               L2-Old           Solver-Max-Delh
          0                 1           6            12    3     1       0.1292541586E+00      12    3    1       0.9800357198E+02      0.2779623857E+03      0.1970299002E+00      0.1292541586E+00
          0                 2           5            12    3     1      -0.1124434352E-01      12    3    1      -0.9889047831E+01      0.2781211026E+02      0.2779623857E+03     -0.1124434352E-01
          0                 3           4            12    3     1      -0.5571334694E-03      12    3    1      -0.4894645863E+00      0.1394196017E+01      0.2781211026E+02     -0.5571334694E-03
          0                 4           2            12    1     1      -0.3042060083E-04      12    1    1      -0.3340599104E-01      0.7025150570E-01      0.1394196017E+01     -0.3042060083E-04

    ------------------------------------------------
       NWT REQUIRED            4 OUTER ITERATIONS 
       AND A TOTAL OF         17 INNER ITERATIONS.
    ------------------------------------------------
                                                   Max.-Head-Change                        Max.-Flux-Residual
  Residual-Control   Outer-Iter.   Inner-Iter.     Column Row Layer    Max.-Head-Change    Column Row Layer    Max.-Flux-Residual            L2-New               L2-Old           Solver-Max-Delh
          0                 1           6            12    3     2       0.5715380598E-01      12    3    1       0.4521518395E+02      0.1247188173E+03      0.7025150570E-01      0.5715380598E-01
          0                 2           4            12    3     2      -0.4939174861E-02      12    3    1      -0.4556211544E+01      0.1247984821E+02      0.1247188173E+03     -0.4939174861E-02
          0                 3           3            12    3     2      -0.2470232837E-03      12    3    1      -0.2267273180E+00      0.6267881620E+00      0.1247984821E+02     -0.2470232837E-03
          0                 4           2            12    3     2      -0.1205088716E-04       1    1    1      -0.1066834794E-01      0.2850635599E-01      0.6267881620E+00     -0.1205088716E-04

    ------------------------------------------------
       NWT REQUIRED            4 OUTER ITERATIONS 
       AND A TOTAL OF         15 INNER ITERATIONS.
    ------------------------------------------------
                                                   Max.-Head-Change                        Max.-Flux-Residual
  Residual-Control   Outer-Iter.   Inner-Iter.     Column Row Layer    Max.-Head-Change    Column Row Layer    Max.-Flux-Residual            L2-New               L2-Old           Solver-Max-Delh
          0                 1           5            12    3     2       0.2774230231E-01      12    3    1       0.2148449271E+02      0.6229415363E+02      0.2850635599E-01      0.2774230231E-01
          0                 2           4            12    3     2      -0.2397465369E-02      12    3    1      -0.2169336541E+01      0.6235371643E+01      0.6229415363E+02     -0.2397465369E-02
          0                 3           3            12    3     1      -0.1209045400E-03      12    3    1      -0.1127129340E+00      0.3093666792E+00      0.6235371643E+01     -0.1209045400E-03
          0                 4           2             1    1     1      -0.1039778734E-04       1    1    1      -0.1136290212E-01      0.2434184933E-01      0.3093666792E+00     -0.1039778734E-04

    ------------------------------------------------
       NWT REQUIRED            4 OUTER ITERATIONS 
       AND A TOTAL OF         14 INNER ITERATIONS.
    ------------------------------------------------
                                                   Max.-Head-Change                        Max.-Flux-Residual
  Residual-Control   Outer-Iter.   Inner-Iter.     Column Row Layer    Max.-Head-Change    Column Row Layer    Max.-Flux-Residual            L2-New               L2-Old           Solver-Max-Delh
          0                 1           5            12    1     2       0.1308445744E-01      12    1    1       0.1004747187E+02      0.2958213446E+02      0.2434184933E-01      0.1308445744E-01
          0                 2           4            12    1     2      -0.1130507486E-02      12    1    1      -0.1001956930E+01      0.2959195819E+01      0.2958213446E+02     -0.1130507486E-02
          0                 3           3            12    1     2      -0.5637817961E-04      12    1    1      -0.5119787424E-01      0.1467826875E+00      0.2959195819E+01     -0.5637817961E-04

    ------------------------------------------------
       NWT REQUIRED            3 OUTER ITERATIONS 
       AND A TOTAL OF         12 INNER ITERATIONS.
    ------------------------------------------------
                                                   Max.-Head-Change                        Max.-Flux-Residual
  Residual-Control   Outer-Iter.   Inner-Iter.     Column Row Layer    Max.-Head-Change    Column Row Layer    Max.-Flux-Residual            L2-New               L2-Old           Solver-Max-Delh
          0                 1           4            12    1     2       0.5966612049E-02      12    1    1       0.4575572969E+01      0.1324968776E+02      0.1467826875E+00      0.5966612049E-02
          0                 2           4            12    1     2      -0.5145398381E-03      12    1    1      -0.4612629616E+00      0.1323100529E+01      0.1324968776E+02     -0.5145398381E-03
          0                 3           2            12    1     1      -0.2660909844E-04      12    1    1      -0.2650610852E-01      0.6707869241E-01      0.1323100529E+01     -0.2660909844E-04

    ------------------------------------------------
       NWT REQUIRED            3 OUTER ITERATIONS 
       AND A TOTAL OF         10 INNER ITERATIONS.
    ------------------------------------------------
                                                   Max.-Head-Change                        Max.-Flux-Residual
  Residual-Control   Outer-Iter.   Inner-Iter.     Column Row Layer    Max.-Head-Change    Column Row Layer    Max.-Flux-Residual            L2-New               L2-Old           Solver-Max-Delh
          0                 1           4            11    1     2       0.2569591145E-02      12    1    1       0.1933459062E+01      0.5522101584E+01      0.6707869241E-01      0.2569591145E-02
          0                 2           3            11    1     2      -0.2212975224E-03      12    1    1      -0.1879879385E+00      0.5541756629E+00      0.5522101584E+01     -0.2212975224E-03
          0                 3           2            11    1     1      -0.1152966032E-04      12    3    1      -0.9296309145E-02      0.2769363263E-01      0.5541756629E+00     -0.1152966032E-04

    ------------------------------------------------
       NWT REQUIRED            3 OUTER ITERATIONS 
       AND A TOTAL OF          9 INNER ITERATIONS.
    ------------------------------------------------
                                                   Max.-Head-Change                        Max.-Flux-Residual
  Residual-Control   Outer-Iter.   Inner-Iter.     Column Row Layer    Max.-Head-Change    Column Row Layer    Max.-Flux-Residual            L2-New               L2-Old           Solver-Max-Delh
          0                 1           4            12    1     2       0.1007356484E-02      12    1    1       0.7455259386E+00      0.2062456066E+01      0.2769363263E-01      0.1007356484E-02
          0                 2           3            12    1     2      -0.8716349602E-04      12    1    1      -0.7418771210E-01      0.2111066038E+00      0.2062456066E+01     -0.8716349602E-04

    ------------------------------------------------
       NWT REQUIRED            2 OUTER ITERATIONS 
       AND A TOTAL OF          7 INNER ITERATIONS.
    ------------------------------------------------
                                                   Max.-Head-Change                        Max.-Flux-Residual
  Residual-Control   Outer-Iter.   Inner-Iter.     Column Row Layer    Max.-Head-Change    Column Row Layer    Max.-Flux-Residual            L2-New               L2-Old           Solver-Max-Delh
          0                 1           3            12    1     2       0.3289324805E-03      12    1    1       0.2390614568E+00      0.6206557163E+00      0.2111066038E+00      0.3289324805E-03
          0                 2           2            12    1     2      -0.2876797492E-04      12    1    1      -0.2733360080E-01      0.6839909911E-01      0.6206557163E+00     -0.2876797492E-04

    ------------------------------------------------
       NWT REQUIRED            2 OUTER ITERATIONS 
       AND A TOTAL OF          5 INNER ITERATIONS.
    ------------------------------------------------
          0                 1           3             1    3     3       0.9921065735E-04       1    3    1       0.4962564842E-01      0.1101766442E+00      0.6839909911E-01      0.9921065735E-04

    ------------------------------------------------
       NWT REQUIRED            1 OUTER ITERATIONS 
       AND A TOTAL OF          3 INNER ITERATIONS.
    ------------------------------------------------
          0                 1           2             7    1     1      -0.4606985079E-04       7    1    1      -0.2900223166E-01      0.8538512816E-01      0.1101766442E+00     -0.4606985079E-04

    ------------------------------------------------
       NWT REQUIRED            1 OUTER ITERATIONS 
       AND A TOTAL OF          2 INNER ITERATIONS.
    ------------------------------------------------
          0                 1           3            11    1     1      -0.4475789619E-04       1    3    1      -0.3476919624E-01      0.1004343601E+00      0.8538512816E-01     -0.4475789619E-04

    ------------------------------------------------
       NWT REQUIRED            1 OUTER ITERATIONS 
       AND A TOTAL OF          3 INNER ITERATIONS.
    ------------------------------------------------

 OUTPUT CONTROL FOR STRESS PERIOD     24   TIME STEP     2
    PRINT BUDGET
    SAVE HEAD FOR ALL LAYERS
    SAVE BUDGET
 UBDSV1 SAVING "         STORAGE" ON UNIT7012 AT TIME STEP    2, STRESS PERIOD  24
 UBDSV2 SAVING "   CONSTANT HEAD" ON UNIT7012 AT TIME STEP    2, STRESS PERIOD  24
 UBDSV1 SAVING "FLOW RIGHT FACE " ON UNIT7012 AT TIME STEP    2, STRESS PERIOD  24
 UBDSV1 SAVING "FLOW FRONT FACE " ON UNIT7012 AT TIME STEP    2, STRESS PERIOD  24
 UBDSV1 SAVING "FLOW LOWER FACE " ON UNIT7012 AT TIME STEP    2, STRESS PERIOD  24
 UBDSV4 SAVING " GHOST-NODE HEAD" ON UNIT7012 AT TIME STEP    2, STRESS PERIOD  24

 HEAD WILL BE SAVED ON UNIT 2212 AT END OF TIME STEP     2, STRESS PERIOD     24
1
  VOLUMETRIC BUDGET FOR ENTIRE MODEL AT END OF TIME STEP    2 IN STRESS PERIOD     24
  ------------------------------------------------------------------------------

     CUMULATIVE VOLUMES      L**3       RATES FOR THIS TIME STEP      L**3/T
     ------------------                 ------------------------

           IN:                                      IN:
           ---                                      ---
             STORAGE =       54595.0078               STORAGE =           0.0000
       CONSTANT HEAD =           0.0000         CONSTANT HEAD =           0.0000
     GHOST-NODE HEAD =     2699685.0000       GHOST-NODE HEAD =        1942.7379

            TOTAL IN =     2754280.0000              TOTAL IN =        1942.7379

          OUT:                                     OUT:
          ----                                     ----
             STORAGE =     1641115.2500               STORAGE =         276.3315
       CONSTANT HEAD =           0.0000         CONSTANT HEAD =           0.0000
     GHOST-NODE HEAD =     1113164.3750       GHOST-NODE HEAD =        1666.3604

           TOTAL OUT =     2754279.5000             TOTAL OUT =        1942.6919

            IN - OUT =           0.5000              IN - OUT =       4.6021E-02

 PERCENT DISCREPANCY =           0.00     PERCENT DISCREPANCY =           0.00






          TIME SUMMARY AT END OF TIME STEP     2 IN STRESS PERIOD     24
                    SECONDS     MINUTES      HOURS       DAYS        YEARS
                    -----------------------------------------------------------
   TIME STEP LENGTH 1.31414E+06  21902.      365.04      15.210     4.16427E-02
 STRESS PERIOD TIME 2.62829E+06  43805.      730.08      30.420     8.32854E-02
         TOTAL TIME 6.30789E+07 1.05132E+06  17522.      730.08      1.9989    
1
1
  FLUX ACROSS PARENT-CHILD INTERFACE AT TIME STEP  2 IN STRESS PERIOD   24
  ------------------------------------------------------------------------
 G-N FLUX        PARENT        CHILD         DIFFERENCE      % DIFFERENCE
  RATE IN:      1.9424E+03    1.9427E+03    -3.0115E-01       -0.0155
 RATE OUT:      1.6666E+03    1.6664E+03     2.4048E-01        0.0144
