
                       OWHM 1.0
    U.S. GEOLOGICAL SURVEY MODULAR FINITE-DIFFERENCE 
         ONE-WATER HYDROLOGIC-FLOW MODEL [OWHM]
              Version 1.0.0   11/05/2014

 INCLUDES:
          MODFLOW-2005 Version 1.11.0  08/08/2013
          FMP          Version 3.0.0   08/01/2014
          SWR          Version 1.03.0  09/24/2013
          SWI          Version 2.0.0   07/22/2013
          LGR          Version 2.0.0   09/19/2013
          NWT          Version 1.0.9   07/01/2014


 LIST FILE: ../../test-out-owhm-lgr/fmp-lgr-nwt/OWHM_EX2_child3.lst
                         UNIT  713

 OPENING OWHM_EX2_child3.upw
 FILE TYPE:UPW   UNIT  913   STATUS:OLD    
 FORMAT:FORMATTED              ACCESS:SEQUENTIAL          

 OPENING OWHM_EX2_child3.ba6
 FILE TYPE:BAS6   UNIT 1013   STATUS:OLD    
 FORMAT:FORMATTED              ACCESS:SEQUENTIAL          

 OPENING OWHM_EX2_child3.dis
 FILE TYPE:DIS   UNIT 1113   STATUS:OLD    
 FORMAT:FORMATTED              ACCESS:SEQUENTIAL          

 OPENING OWHM_EX2_child3.fmp
 FILE TYPE:FMP   UNIT 1213   STATUS:OLD    
 FORMAT:FORMATTED              ACCESS:SEQUENTIAL          

 OPENING OWHM_EX2_child3.sfr
 FILE TYPE:SFR   UNIT 1413   STATUS:OLD    
 FORMAT:FORMATTED              ACCESS:SEQUENTIAL          

 OPENING OWHM_EX2_child3.oc
 FILE TYPE:OC   UNIT 1913   STATUS:OLD    
 FORMAT:FORMATTED              ACCESS:SEQUENTIAL          
# Solvers                                                                                                                                                                                                                                                                                                                                                                                                                                                                                                                                                                                                                                                                                                                   

 OPENING OWHM_EX2.nwt
 FILE TYPE:NWT   UNIT 1813   STATUS:OLD    
 FORMAT:FORMATTED              ACCESS:SEQUENTIAL          
#                                                                                                                                                                                                                                                                                                                                                                                                                                                                                                                                                                                                                                                                                                                           

 OPENING ../../test-out-owhm-lgr/fmp-lgr-nwt/OWHM_EX2_child3.hed
 FILE TYPE:DATA   UNIT 2213   STATUS:UNKNOWN
 FORMAT:FORMATTED              ACCESS:SEQUENTIAL          
#                                                                                                                                                                                                                                                                                                                                                                                                                                                                                                                                                                                                                                                                                                                           

 OPENING ../../test-out-owhm-lgr/fmp-lgr-nwt/CBC_child3.OUT
 FILE TYPE:DATA(BINARY)   UNIT 7013   STATUS:UNKNOWN
 FORMAT:UNFORMATTED            ACCESS:STREAM              

 OPENING ../../test-out-owhm-lgr/fmp-lgr-nwt/OWHM_EX2_child_bfh3.hed
 FILE TYPE:DATA   UNIT 5913   STATUS:UNKNOWN
 FORMAT:FORMATTED              ACCESS:SEQUENTIAL          

 OPENING ../../test-out-owhm-lgr/fmp-lgr-nwt/OWHM_EX2_child_bfh3.flw
 FILE TYPE:DATA   UNIT 6913   STATUS:UNKNOWN
 FORMAT:FORMATTED              ACCESS:SEQUENTIAL          

 OPENING ../../test-out-owhm-lgr/fmp-lgr-nwt/OWHM_EX2_child3_SFR_OUTPUT.txt
 FILE TYPE:DATA   UNIT   77   STATUS:UNKNOWN
 FORMAT:FORMATTED              ACCESS:SEQUENTIAL          

 BAS -- BASIC PACKAGE, VERSION 7, 5/2/2005 INPUT READ FROM UNIT 1013
 
 MODFLOW was compiled using mixed precision
 Precision of REAL variables:           6
 Precision of DOUBLE PRECISION variables:          15

 DISCRETIZATION INPUT DATA READ FROM UNIT 1113
 # generic model 1 transient discretization file

*** DIS COORDINATE SYSTEM NOT SEPECIFIED ***
DEFAULT VALUES APPLIED ARE 0° ROTATION
WITH THE ORIGIN (0,0) LOCATED AT THE MODEL'S LOWER LEFT CORNER


    4 LAYERS        15 ROWS         6 COLUMNS
     24 STRESS PERIOD(S) IN SIMULATION
 MODEL TIME UNIT IS DAYS
 MODEL LENGTH UNIT IS METERS
  Confining bed flag for each layer:
   1   1   1   0

                     DELR =   166.667    

                     DELC =   166.667    

 OPENING FILE ON UNIT   99:
 ./DATA_FMP/GSE_child3.in                                                                                                                                                                                                                                                                                                                                                                                                                                                                                                                                                                                                                                                                                                    



           TOP ELEVATION OF LAYER 1
 READING ON UNIT   99 WITH FORMAT: (FREE)              

   MODEL LAYER BOTTOM EL. =   205.000     FOR LAYER   1

 BOT. EL. OF QUASI-3D BED =   200.000     FOR LAYER   1

   MODEL LAYER BOTTOM EL. =   140.000     FOR LAYER   2

 BOT. EL. OF QUASI-3D BED =   125.000     FOR LAYER   2

   MODEL LAYER BOTTOM EL. =   65.0000     FOR LAYER   3

 BOT. EL. OF QUASI-3D BED =   60.0000     FOR LAYER   3

   MODEL LAYER BOTTOM EL. =   0.00000     FOR LAYER   4


 STRESS PERIOD     LENGTH       TIME STEPS     MULTIPLIER FOR DELT    SS FLAG
 ----------------------------------------------------------------------------
        1         30.42000          2                    1.000         TR
        2         30.42000          2                    1.000         TR
        3         30.42000          2                    1.000         TR
        4         30.42000          2                    1.000         TR
        5         30.42000          2                    1.000         TR
        6         30.42000          2                    1.000         TR
        7         30.42000          2                    1.000         TR
        8         30.42000          2                    1.000         TR
        9         30.42000          2                    1.000         TR
       10         30.42000          2                    1.000         TR
       11         30.42000          2                    1.000         TR
       12         30.42000          2                    1.000         TR
       13         30.42000          2                    1.000         TR
       14         30.42000          2                    1.000         TR
       15         30.42000          2                    1.000         TR
       16         30.42000          2                    1.000         TR
       17         30.42000          2                    1.000         TR
       18         30.42000          2                    1.000         TR
       19         30.42000          2                    1.000         TR
       20         30.42000          2                    1.000         TR
       21         30.42000          2                    1.000         TR
       22         30.42000          2                    1.000         TR
       23         30.42000          2                    1.000         TR
       24         30.42000          2                    1.000         TR

 TRANSIENT SIMULATION



 
 # generic model 1                                                               
 THE FREE FORMAT OPTION HAS BEEN SELECTED

 THE MAX STORAGE FOR PROPERTIES DEFINED BY PARAMETERS IS: 
 MAX STORAGE OF PARAMETERS (MXPAR)  IS       2000
 MAX STORAGE OF INSTANCES  (MXINST) IS      50000
 MAX STORAGE OF CLUSTERS   (MXCLST) IS    2000000

 CALCULATE FLOW BETWEEN ADJACENT CONSTANT-HEAD CELLS

 OPENING FILE ON UNIT   99:
 OWHM_EX2_child3.ib                                                                                                                                                                                                                                                                                                                                                                                                                                                                                                                                                                                                                                                                                                          



                     BOUNDARY ARRAY FOR LAYER   1
 READING ON UNIT   99 WITH FORMAT: (FREE)              

 OPENING FILE ON UNIT   99:
 OWHM_EX2_child3.ib                                                                                                                                                                                                                                                                                                                                                                                                                                                                                                                                                                                                                                                                                                          



                     BOUNDARY ARRAY FOR LAYER   2
 READING ON UNIT   99 WITH FORMAT: (FREE)              

 OPENING FILE ON UNIT   99:
 OWHM_EX2_child3.ib                                                                                                                                                                                                                                                                                                                                                                                                                                                                                                                                                                                                                                                                                                          



                     BOUNDARY ARRAY FOR LAYER   3
 READING ON UNIT   99 WITH FORMAT: (FREE)              

 OPENING FILE ON UNIT   99:
 OWHM_EX2_child3.ib                                                                                                                                                                                                                                                                                                                                                                                                                                                                                                                                                                                                                                                                                                          



                     BOUNDARY ARRAY FOR LAYER   4
 READING ON UNIT   99 WITH FORMAT: (FREE)              

CHECKING FOR VALID MODEL DIMENIONS FOR DELR, DELC, AND THICKNESS


 AQUIFER HEAD WILL BE SET TO  -333.00     AT ALL NO-FLOW NODES (IBOUND=0).

             INITIAL HEAD =   0.00000     FOR LAYER   1

             INITIAL HEAD =   0.00000     FOR LAYER   2

             INITIAL HEAD =   0.00000     FOR LAYER   3

             INITIAL HEAD =   0.00000     FOR LAYER   4

 OUTPUT CONTROL IS SPECIFIED ONLY AT TIME STEPS FOR WHICH OUTPUT IS DESIRED
 HEADS WILL BE SAVED WITH FORMAT: (100F8.2)           
 SAVED HEADS WILL BE LABELED
 COMPACT CELL-BY-CELL BUDGET FILES WILL BE WRITTEN
 HEAD PRINT FORMAT CODE IS  -3    DRAWDOWN PRINT FORMAT CODE IS   0
 HEADS WILL BE SAVED ON UNIT 2213    DRAWDOWNS WILL BE SAVED ON UNIT    0  WATER BUDGETs WILL BE SAVED ON UNIT 

 LGR2 -- LOCAL GRID REFINEMENT, VERSION 2.0, 06/25/2013
        INPUT READ FOR MODEL  4 DEFINED BY NAME FILE OWHM_EX2_child3.nam

 LOCAL GRID REFINEMENT IS ACTIVE FOR CHILD ONLY
               STARTING HEADS FROM PARENT WILL BE USED: ISHFLG =   1
               VALUE IN IBOUND INDICATING BOUNDARY INTERFACE = 4913
               BOUNDARY HEADS WILL BE SAVED ON UNIT  5913
               BOUNDARY FLUXES WILL BE SAVED ON UNIT  6913
               MAX NUMBER OF LGR ITERATIONS = 30
               LGR ITERATION RESULTS WRITTEN TO SCREEN: IOUTLGR =  -1

               WEIGHTING FACTORS FOR RELAXATION
               RELAXH(HEAD) RELAXF(FLUX)
               -------------------------
               0.500E+00      0.500E+00

               CLOSURE CRITERIA FOR LGR ITERATIONS
               HCLOSELGR       FCLOSELGR
               -------------------------
               5.000E-04      1.000E+00

               STARTING LAYER, ROW, COLUMN=   1,   6,  10
               ENDING LAYER, ROW, COLUMN=     4,  10,  11
               NCPP: NUMBER OF CHILD CELLS PER WIDTH OF PARENT CELL= 3
               NCPPL: NUMBER OF CHILD LAYERS IN LAYER  1 OF PARENT = 1
               NCPPL: NUMBER OF CHILD LAYERS IN LAYER  2 OF PARENT = 1
               NCPPL: NUMBER OF CHILD LAYERS IN LAYER  3 OF PARENT = 1
               NCPPL: NUMBER OF CHILD LAYERS IN LAYER  4 OF PARENT = 1
 # NWT: Newton Solver file created on 3/20/2013 by ModelMuse version 2.18.1.0.

 NWT1 -- Newton Solver, VERSION 1.0.9, 07/01/2014
         INPUT READ FROM UNIT 1813

 COMPLEX OPTION:
 DEFAULT SOLVER INPUT VALUES REFLECT STRONGLY NONLINEAR MODEL
 ***GMRES linear solver will be used***
 
   CONVERGENCE CRITERION OF   0.100000E-03 FOR HEAD SOLUTION
   AND A TOLERANCE OF   0.500000E+03 FOR FLOW SOLUTION AND 
   A MAXIMUM OF   100 OUTER ITERATIONS. 


   D-B-D REDUCTION FACTOR OF    0.850000E+00 AND 
   A D-B-D INCREASE FACTOR OF    0.100000E-04 AND 
   A D-B-D RELAXATION OF    0.000000E+00 AND 
   A MOMENTUM FACTOR OF    0.100000E+00 .


   BACKTRACKING IS ACTIVE 
   THE MAXIMUM NUMBER OF BACKTRACKS IS    50 AND 
   THE BACKTRACKING TOLERANCE IS    0.110000E+01 AND
   THE BACKTRACKING REDUCTION FACTOR IS    0.700000E+00

 GMRES -- LINEAR SOLUTION BY GMRES PACKAGE 
     UNIT:  1813
     adapted for HYDROTHERM by Kipp and others (2008)
     using software originally developed by Saad (1990)
     using algorithms described in Saad (2003)

 UPW1 -- UPSTREAM WEIGHTING FLOW PACKAGE, VERSION 1.0.6, 12/05/2012
         INPUT READ FROM UNIT913

 CELL-BY-CELL FLOWS WILL BE SAVED ON UNIT 7013
 No named parameters

   LAYER FLAGS:
 LAYER       LAYTYP          LAYAVG    CHANI           LAYVKA           LAYWET
 ---------------------------------------------------------------------------
    1             1             0     1.000E+00             1             0
    2             0             0     1.000E+00             1             0
    3             0             0     1.000E+00             1             0
    4             0             0     1.000E+00             1             0

   INTERPRETATION OF LAYER FLAGS:
                        INTERBLOCK     HORIZONTAL    DATA IN
         LAYER TYPE   TRANSMISSIVITY   ANISOTROPY   ARRAY VKA   WETTABILITY
 LAYER   (LAYTYP)        (LAYAVG)      (CHANI)     (LAYVKA)       (LAYWET)
 ---------------------------------------------------------------------------
    1   CONVERTIBLE      HARMONIC     1.000E+00    ANISOTROPY  NON-WETTABLE
    2      CONFINED      HARMONIC     1.000E+00    ANISOTROPY  NON-WETTABLE
    3      CONFINED      HARMONIC     1.000E+00    ANISOTROPY  NON-WETTABLE
    4      CONFINED      HARMONIC     1.000E+00    ANISOTROPY  NON-WETTABLE

    HYD. COND. ALONG ROWS =   10.0000     FOR LAYER   1

  HORIZ. TO VERTICAL ANI. =   1.00000     FOR LAYER   1

         SPECIFIC STORAGE =  1.000000E-05 FOR LAYER   1

           SPECIFIC YIELD =  2.000000E-02 FOR LAYER   1

 QUASI3D VERT. HYD. COND. =  2.000000E-03 FOR LAYER   1

    HYD. COND. ALONG ROWS =   1.50000     FOR LAYER   2

  HORIZ. TO VERTICAL ANI. =   1.00000     FOR LAYER   2

         SPECIFIC STORAGE =  1.000000E-05 FOR LAYER   2

 QUASI3D VERT. HYD. COND. =  1.000000E-03 FOR LAYER   2

    HYD. COND. ALONG ROWS =   1.00000     FOR LAYER   3

  HORIZ. TO VERTICAL ANI. =   1.00000     FOR LAYER   3

         SPECIFIC STORAGE =  1.000000E-05 FOR LAYER   3

 QUASI3D VERT. HYD. COND. =  5.000000E-04 FOR LAYER   3

    HYD. COND. ALONG ROWS =  0.150000     FOR LAYER   4

  HORIZ. TO VERTICAL ANI. =   1.00000     FOR LAYER   4

         SPECIFIC STORAGE =  1.000000E-05 FOR LAYER   4

 SFR7 -- STREAMFLOW ROUTING PACKAGE, VERSION 1.0.5, 2012-04-05
         INPUT READ FROM UNIT 1413
 # Project 1 New Stream Aquifer Package
 No named parameters
 Segment information will not be 
 read by reach
 No named parameters

 NO TABFILE SPECIFIED FOR PACKAGE SFR 

 No specifed inflow files
 AUXILIARY STREAM FLOW ROUTING VARIABLE: LGRGRID         
 AUXILIARY STREAM FLOW ROUTING VARIABLE: LGRSEG          


 NUMBER OF STREAM REACHES IS    6

 NUMBER OF STREAM SEGMENTS IS    1

 NUMBER OF STREAM PARAMETERS IS    0

 NUMBER OF STREAM SEGMENTS DEFINED USING PARAMETERS IS              0

 MAXIMUM ERROR FOR STREAM LEAKAGE RATES IS  1.00E-04

 CONSTANT FOR MANNINGS EQUATION IS  8.6400E+04



 FLOW TO AND FROM GROUND WATER FOR EACH STREAM REACH WILL BE SAVED ON UNIT 7013
 STREAM OUTPUT WILL BE WRITTEN TO FILE ON UNIT   77


   STREAM NETWORK DESCRIPTION: 

   LAYER    ROW    COL   SEGMENT   REACH     LENGTH
                          NUMBER   NUMBER    IN CELL        
   --------------------------------------------------
      1     14      1       1        1    1.6667E+02
      1     14      2       1        2    1.6667E+02
      1     14      3       1        3    1.6667E+02
      1     14      4       1        4    1.6667E+02
      1     14      5       1        5    1.6667E+02
      1     14      6       1        6    1.6667E+02





 FMP3 -- FARM PROCESS, VERSION 3.0, 06/15/1998 03:37:00
 INPUT READ FROM UNIT
 # FMP2 Example Model -- ZERO SCENARIO / EQUAL APPROPRATION
               1 Named Parameters     
               0 Child Model Well List entries
              15 Parent Model Well List entries used at Maximum for Child Model Wells

 DIMENSIONS:
   MAXIMUM OF     30 FARM WELLS
   MAXIMUM OF        8 FARMS
   TOTAL OF        3 SOIL-TYPES
   TOTAL OF        6 CROP-TYPES

 WHEN TO READ SETTINGS:
   ROOT ZONE DEPTHS ............................  SPECIFIED FOR EACH STRESS PERIOD
                                                  IN PARENT MODEL AND USED IN CHILD MODEL WHERE NEEDED

   CROP COEFFICIENTS ...........................  AND
   REFERENCE EVAPOTRANSPIRATION FLUX ...........  SPECIFIED FOR EACH STRESS PERIOD
                                                  IN PARENT MODEL AND USED IN CHILD MODEL WHERE NEEDED

   PRECIPITATION FLUX ..........................  SPECIFIED FOR EACH STRESS PERIOD
                                                  IN PARENT MODEL AND USED IN CHILD MODEL WHERE NEEDED

   FRACTIONS OF TRANS. & EVAP. OF CONSUMPTIVE USE SPECIFIED FOR EACH STRESS PERIOD
                                                  IN PARENT MODEL AND USED IN CHILD MODEL WHERE NEEDED

   FRACTIONS OF IN-EFFICIENT LOSSES TO SW-RUNOFF  SPECIFIED FOR EACH STRESS PERIOD
                                                  IN PARENT MODEL AND USED IN CHILD MODEL WHERE NEEDED

   ON-FARM EFFICIENCIES ........................  SPECIFIED FOR EACH STRESS PERIOD
                                                  IN PARENT MODEL AND USED IN CHILD MODEL WHERE NEEDED

   WATER-BALANCE SUBREGIONS (FARMS).............  SPECIFIED FOR THE ENTIRE SIMULATION

 WATER POLICY SETTINGS:
   EFFICIENCY BEHAVIOR: CONSERVATIVE BEHAVIOR: CONSTANT EFFICIENCY OVER A TIME STEP
                        EFFICIENCY DOES NOT VARY WITH CHANGING GROUNDWATER LEVEL, BUT
                        DELIVERY MAY VARY WITH CHANGING GROUNDWATER LEVEL
                        EFF. RESET TO SPEC. EFF. AT BEG. OF EACH TIME STEP
   NO DEFICIENCY SCENARIO APPLIED (ZERO SCENARIO)
     ASSUMPTION FOR DEFICIENCY CASE: SUPPLY = DEMAND, I.E.
     SUPPLY SUFFICIENTLY SUPPLEMENTED FROM OUTSIDE MODELING DOMAIN
   NO NON-IRRIGATION-SEASON HAS BEEN SELECTED
   NO GROUNDWATER ALLOTMENTS (Volumetric Rate) HAVE BEEN SELECTED -- Maximum Groundwater Delivery limited by Total Capacity of all Farm wells per Farm per Stress Period

 SURFACE-WATER SETTINGS (SUPPLY / RETURNFLOW / RIGHTS:
   FARM DELIVERY REQUIREMENT SUPPLIED BY:
     NON-ROUTED SURFACE-WATER DELIVERIES (FIRST PRIORITY).
     MAXIMUM NUMBER OF NON-ROUTED DELIVERY TYPES =    1
   NO ROUTED SURFACE-WATER DELIVERY EXISTS
   NO SEMI-ROUTED RUNOFF-RETURNFLOW EXISTS
   FARM RUNOFF RETURNED TO STREAM-NETWORK BY:
     FULLY ROUTED SURFACE-WATER RETURNFLOW FROM ALL FARMS
     TO ALL REACHES OF ANY STREAM SEGMENT LOCATED WITHIN EACH FARM

 PRINT SETTINGS:
   FARM WELL FLOW RATES:
     A LIST (FARM-WELL ID, FARM ID, LAY, ROW, COL, RATE) IS SAVED 
     ON ASCII FILE "FWELLS.OUT" FOR ALL TIME STEPS
   FARM NET RECHARGE FLOW RATES:
     A 2D INTEGER-ARRAY OF EACH CELLS UPPERMOST ACTIVE LAYER, AND
     A 2D REAL-ARRAY OF EACH CELLS NET RECHARGE RATE 
     WILL BE SAVED AS BINARY FILE ON UNIT 7013 FOR TIME STEPS, FOR WHICH IN OUTPUT CONTOL
     "SAVE BUDGET" IS SPECIFIED (USING WORDS), OR ICBCFL IS NOT 0 (USING NUMERIC CODES)
   FARM DEMAND & SUPPLY FLOW RATES:
     A LIST OF INITIAL DEMAND & SUPPLY FLOW RATES, AND OF
     FINAL DEMAND AND SUPPLY FLOW RATES AFTER THE APPLICATION OF A DEFICIENCY SCENARIO
     WILL BE SAVED ON ASCII-FILE "FDS.OUT" FOR ALL TIME STEPS.  LIST =
     (PER,TSTP,TIME,FID,OFE,
      TFDR-INI,NR-SWD-INI,R-SWD-INI,QREQ,TFDR-FIN,NR-SWD-FIN,R-SWD-FIN,QREQ,Q,DEF-FLAG)
     (<-- BEFORE DEFICIENCY SCENARIO --> <--       AFTER DEFICIENCY SCENARIO       -->)
   DETAILED FARM BUDGET:
     A LIST OF VOLUMETRIC FLOW RATES FOR ANY TIME STEP [L^3/T], AND OF CUMULATIVE VOLUMES [L^3] 
     WILL BE SAVED ON ASCII-FILE "FB_DETAILS.OUT" FOR ALL TIME STEPS.
      LIST = (PER,TSTP,TIME,FID;
      RATES INTO FARM: Q-p-in, Q-nrd-in, Q-srd-in, Q-rd-in, Q-wells-in, Q-egw-in, Q-tgw-in, Q-ext-in, Q-tot-in,
      RATES OUT OF FARM: Q-ei-out, Q-ep-out, Q-egw-out, Q-ti-out, Q-tp-out, Q-tgw-out Q-run-out, Q-dp-out, Q-nrd-out, Q-srd-out, Q-rd-out, Q-wells-out, Q-tot-out,
      RATE BUDGET ERROR: Q-in-minus-out, Q-Discrepancy [%];
      CUMULATIVE VOLUMES INTO FARM: V-p-in, V-nrd-in, V-srd-in, V-rd-in, V-wells-in, V-egw-in, V-tgw-in, V-ext-in, V-tot-in,
      CUMULATIVE VOLUMES OUT OF FARM: V-ei-out, V-ep-out, V-egw-out, V-ti-out, V-tp-out, V-tgw-out V-run-out, V-dp-out, V-nrd-out, V-srd-out, V-rd-out, V-wells-out, V-tot-out,
      VOLUMETRIC BUDGET ERROR: Q-in-minus-out, Q-Discrepancy [%])
   ROUTING INFOMATION:
     WRITTEN TO ASCII FILE "ROUT.OUT" FOR FIRST STRESS PERIOD ONLY
 
 AUXILIARY FARM WELL PARAMETER: QMAXRESET       
 AUXILIARY FARM WELL PARAMETER: LGRGRID         


     1 Farm Well parameters

 PARAMETER NAME:WELLS1       TYPE:QMAX
 Parameter value from package file is:    1000.0    
   NUMBER OF ENTRIES:      0
 
 WELL NO. LAYER    ROW    COL  F-WELL ID    FARM ID      QMAXfac         QMAXRESET       LGRGRID         
 --------------------------------------------------------------------------------------------------------
       2      1      2      2          5          2      2.0000E+00     0    0
       3      1      5      5          6          2      1.0000E+00     0    0
1
                            STRESS PERIOD NO.      1, LENGTH =   30.42000    
                            -----------------------------------------------

                              NUMBER OF TIME STEPS =     2

                               MULTIPLIER FOR DELT =     1.000

                            INITIAL TIME STEP SIZE =   15.21000    

PARAMETERS HAVE BEEN USED IN PACKAGES
THE CURRENT STORAGE FOR PARAMETERS IS: 
# PARAMETER=         1 WITH MAX STORAGE (MXPAR)  OF      2000
# INSTANCES=         0 WITH MAX STORAGE (MXINST) OF     50000
# CLUSTERS =         0 WITH MAX STORAGE (MXCLST) OF   2000000
YOU CAN INCREASE/DECREASE STORAGE WITH BAS OPTION:
MAXPARAM  MXPAR  MXCLST MXINST



 CLASSIFICATION & COUNT OF STREAM SEGMENTS BASED ON SOURCE OF INFLOW:

                HEADWATER     DIVERSION     RECEIVES TRIBUTARY FLOW
                ---------     ---------     -----------------------
                     1              0               0




 WELL NO. LAYER    ROW    COL  F-WELL ID    FARM ID         QMAX         QMAXRESET       LGRGRID         
 --------------------------------------------------------------------------------------------------------
       1      1      2      2          5          2      2.0000E+00     0    0
       2      1      5      5          6          2      1.0000E+00     0    0

 Parameter:  WELLS1
 WELL NO. LAYER    ROW    COL  F-WELL ID    FARM ID         QMAX         QMAXRESET       LGRGRID         
 --------------------------------------------------------------------------------------------------------
       3      1      2      2          5          2      2.0000E+03              0              0
       4      1      5      5          6          2      1.0000E+03              0              0

 NUMBER OF ACTIVE FARM WELLS:        4

 FARM-ID  NUMBER OF WELLS PER FARM  TOTAL MAX.CAPACITY PER FARM
       1                         0                       0.0000
       2                         4                    3003.0000
       3                         0                       0.0000
       4                         0                       0.0000
       5                         0                       0.0000
       6                         0                       0.0000
       7                         0                       0.0000
       8                         0                       0.0000

Transpiratory and Evaporative Fractions of Crop Consumptive Use
    % Transpiration % Evap. for Precip. % Evap. for Irrig.
    3          0.957          0.043          0.043
    5          0.777          0.223          0.000

FRACTIONS OF IN-EFFICIENT LOSSES TO SW-RUNOFF FROM 
     PRECIPITATION:  IRRIGATION:
    3          0.600          0.500
    5          0.840          0.000
 
 SOLVING FOR HEAD 
                                                   Max.-Head-Change                        Max.-Flux-Residual
  Residual-Control   Outer-Iter.   Inner-Iter.     Column Row Layer    Max.-Head-Change    Column Row Layer    Max.-Flux-Residual            L2-New               L2-Old           Solver-Max-Delh
          0                 1          11             1    6     1      -0.3423309077E+02       3   14    1      -0.4003301974E+04      0.2892360611E+05      0.0000000000E+00     -0.3423309077E+02
          0                 2          10             3   14     1      -0.5860288911E+01       3   14    1      -0.3932315612E+04      0.9339502212E+04      0.2892360611E+05     -0.5860288911E+01
          0                 3           9             1    5     1       0.3254646100E+00       2   14    1       0.2006697559E+03      0.6013530729E+03      0.9339502212E+04      0.3254646100E+00
          0                 4           7             3   14     1       0.1875848375E-01       1   14    1       0.1185573074E+02      0.3080148942E+02      0.6013530729E+03      0.1875848375E-01
          0                 5           5             3   14     1       0.1274604843E-02       1   14    1       0.8291635932E+00      0.1870946040E+01      0.3080148942E+02      0.1274604843E-02
          0                 6           4             3   14     1       0.9134739600E-04       1   14    1       0.6350319023E-01      0.1439936973E+00      0.1870946040E+01      0.9134739600E-04

    ------------------------------------------------
       NWT REQUIRED            6 OUTER ITERATIONS 
       AND A TOTAL OF         46 INNER ITERATIONS.
    ------------------------------------------------
                                                   Max.-Head-Change                        Max.-Flux-Residual
  Residual-Control   Outer-Iter.   Inner-Iter.     Column Row Layer    Max.-Head-Change    Column Row Layer    Max.-Flux-Residual            L2-New               L2-Old           Solver-Max-Delh
          0                 1          11             1   11     1      -0.2044713316E+02       1   10    1      -0.9127965870E+04      0.2805742730E+05      0.1439936973E+00     -0.2044713316E+02
          0                 2           9             1   11     2       0.1092137399E+01       1   15    1       0.5550214016E+03      0.1456579653E+04      0.2805742730E+05      0.1092137399E+01
          0                 3           8             1   11     2       0.6162865098E-01       1   15    1       0.4493699054E+02      0.1305562767E+03      0.1456579653E+04      0.6162865098E-01
          0                 4           7             6   10     1       0.5786764049E-02       1   15    1       0.3690853423E+01      0.1263614557E+02      0.1305562767E+03      0.5786764049E-02
          0                 5           5             6    7     1       0.5907451747E-03       1   15    1       0.3118410019E+00      0.1236436792E+01      0.1263614557E+02      0.5907451747E-03
          0                 6           4             6    7     1       0.6232478688E-04       6    1    1       0.3296759049E-01      0.1263136456E+00      0.1236436792E+01      0.6232478688E-04

    ------------------------------------------------
       NWT REQUIRED            6 OUTER ITERATIONS 
       AND A TOTAL OF         44 INNER ITERATIONS.
    ------------------------------------------------
                                                   Max.-Head-Change                        Max.-Flux-Residual
  Residual-Control   Outer-Iter.   Inner-Iter.     Column Row Layer    Max.-Head-Change    Column Row Layer    Max.-Flux-Residual            L2-New               L2-Old           Solver-Max-Delh
          0                 1          10             6    7     2      -0.3627601219E+01       6    1    1      -0.2219049735E+04      0.6478424279E+04      0.1263136456E+00     -0.3627601219E+01
          0                 2           9             1   11     2       0.2645027199E+00       6    1    1       0.1324285383E+03      0.3137261062E+03      0.6478424279E+04      0.2645027199E+00
          0                 3           7             6    8     2       0.1492296916E-01       6    1    1       0.1043612255E+02      0.2812034522E+02      0.3137261062E+03      0.1492296916E-01
          0                 4           6             6    3     1       0.1112463047E-02       6    1    1       0.8567928823E+00      0.2690868535E+01      0.2812034522E+02      0.1112463047E-02
          0                 5           4             6    6     1       0.1217903837E-03       6    1    1       0.7918400288E-01      0.2728950628E+00      0.2690868535E+01      0.1217903837E-03
          0                 6           2             1    1     1       0.1480849125E-04       1   15    1       0.1568329579E-01      0.2872524961E-01      0.2728950628E+00      0.1480849125E-04

    ------------------------------------------------
       NWT REQUIRED            6 OUTER ITERATIONS 
       AND A TOTAL OF         38 INNER ITERATIONS.
    ------------------------------------------------
                                                   Max.-Head-Change                        Max.-Flux-Residual
  Residual-Control   Outer-Iter.   Inner-Iter.     Column Row Layer    Max.-Head-Change    Column Row Layer    Max.-Flux-Residual            L2-New               L2-Old           Solver-Max-Delh
          0                 1           9             6    1     2      -0.1116225092E+01       6   15    1      -0.7804203477E+03      0.2208654534E+04      0.2872524961E-01     -0.1116225092E+01
          0                 2           8             6    1     2       0.8870304891E-01       1   10    1      -0.5713179118E+02      0.1425145332E+03      0.2208654534E+04      0.8870304891E-01
          0                 3           6             1   10     1      -0.5459146945E-02       1   10    1      -0.4729869461E+01      0.1120994845E+02      0.1425145332E+03     -0.5459146945E-02
          0                 4           5             1   10     1      -0.4212322471E-03       1   10    1      -0.3821664761E+00      0.9308436508E+00      0.1120994845E+02     -0.4212322471E-03
          0                 5           3             1   10     1      -0.3589606997E-04       1   10    1      -0.3200452012E-01      0.8356345593E-01      0.9308436508E+00     -0.3589606997E-04

    ------------------------------------------------
       NWT REQUIRED            5 OUTER ITERATIONS 
       AND A TOTAL OF         31 INNER ITERATIONS.
    ------------------------------------------------
                                                   Max.-Head-Change                        Max.-Flux-Residual
  Residual-Control   Outer-Iter.   Inner-Iter.     Column Row Layer    Max.-Head-Change    Column Row Layer    Max.-Flux-Residual            L2-New               L2-Old           Solver-Max-Delh
          0                 1           9             1   11     1       0.1233677314E+01       1   10    1       0.6549696727E+03      0.1250028087E+04      0.8356345593E-01      0.1233677314E+01
          0                 2           7             1   11     1      -0.7080135745E-01       1   12    1      -0.5421284694E+02      0.9126517222E+02      0.1250028087E+04     -0.7080135745E-01
          0                 3           6             1   11     1      -0.5806489116E-02       1   11    1      -0.3818417559E+01      0.7225174087E+01      0.9126517222E+02     -0.5806489116E-02
          0                 4           4             1   10     1      -0.4848587865E-03       1   10    1      -0.3459785769E+00      0.5710857382E+00      0.7225174087E+01     -0.4848587865E-03
          0                 5           3             1   10     1      -0.4805486994E-04       1   10    1      -0.3459611075E-01      0.5438155012E-01      0.5710857382E+00     -0.4805486994E-04

    ------------------------------------------------
       NWT REQUIRED            5 OUTER ITERATIONS 
       AND A TOTAL OF         29 INNER ITERATIONS.
    ------------------------------------------------
                                                   Max.-Head-Change                        Max.-Flux-Residual
  Residual-Control   Outer-Iter.   Inner-Iter.     Column Row Layer    Max.-Head-Change    Column Row Layer    Max.-Flux-Residual            L2-New               L2-Old           Solver-Max-Delh
          0                 1           9             1   11     1       0.6647466315E+00       1   12    1       0.3276076681E+03      0.7248949574E+03      0.5438155012E-01      0.6647466315E+00
          0                 2           7             1   11     2      -0.4129290696E-01       1   12    1      -0.2601280647E+02      0.4177173837E+02      0.7248949574E+03     -0.4129290696E-01
          0                 3           5             1   11     1      -0.2857801137E-02       1   12    1      -0.1751100676E+01      0.3454521595E+01      0.4177173837E+02     -0.2857801137E-02
          0                 4           4             1   10     1      -0.2508160712E-03       1   10    1      -0.1590174302E+00      0.3084717087E+00      0.3454521595E+01     -0.2508160712E-03
          0                 5           2             1   11     1      -0.2267432928E-04       1   11    1      -0.1770928828E-01      0.3022735563E-01      0.3084717087E+00     -0.2267432928E-04

    ------------------------------------------------
       NWT REQUIRED            5 OUTER ITERATIONS 
       AND A TOTAL OF         27 INNER ITERATIONS.
    ------------------------------------------------
                                                   Max.-Head-Change                        Max.-Flux-Residual
  Residual-Control   Outer-Iter.   Inner-Iter.     Column Row Layer    Max.-Head-Change    Column Row Layer    Max.-Flux-Residual            L2-New               L2-Old           Solver-Max-Delh
          0                 1           9             6    8     1       0.2272969285E+00       1   12    1       0.9974946924E+02      0.3900749754E+03      0.3022735563E-01      0.2272969285E+00
          0                 2           7             1   11     2      -0.1473525082E-01       1   12    1      -0.7301893971E+01      0.1722460150E+02      0.3900749754E+03     -0.1473525082E-01
          0                 3           5             1   11     1      -0.8562591224E-03       1   12    1      -0.5028575481E+00      0.1592642625E+01      0.1722460150E+02     -0.8562591224E-03
          0                 4           4             1   10     1      -0.7715308977E-04       6    1    1      -0.4120514938E-01      0.1589816469E+00      0.1592642625E+01     -0.7715308977E-04

    ------------------------------------------------
       NWT REQUIRED            4 OUTER ITERATIONS 
       AND A TOTAL OF         25 INNER ITERATIONS.
    ------------------------------------------------
                                                   Max.-Head-Change                        Max.-Flux-Residual
  Residual-Control   Outer-Iter.   Inner-Iter.     Column Row Layer    Max.-Head-Change    Column Row Layer    Max.-Flux-Residual            L2-New               L2-Old           Solver-Max-Delh
          0                 1           8             6    7     1       0.1299433617E+00       6    1    1       0.6791542147E+02      0.2207963368E+03      0.1589816469E+00      0.1299433617E+00
          0                 2           6             6    8     2      -0.9091012949E-02       6    1    1      -0.4018141751E+01      0.9930411721E+01      0.2207963368E+03     -0.9091012949E-02
          0                 3           5             6    7     2      -0.5184961253E-03       6    1    1      -0.3129381880E+00      0.9134305945E+00      0.9930411721E+01     -0.5184961253E-03
          0                 4           3             6    8     1      -0.4925879267E-04       6    9    1      -0.2841176261E-01      0.8766019008E-01      0.9134305945E+00     -0.4925879267E-04

    ------------------------------------------------
       NWT REQUIRED            4 OUTER ITERATIONS 
       AND A TOTAL OF         22 INNER ITERATIONS.
    ------------------------------------------------
                                                   Max.-Head-Change                        Max.-Flux-Residual
  Residual-Control   Outer-Iter.   Inner-Iter.     Column Row Layer    Max.-Head-Change    Column Row Layer    Max.-Flux-Residual            L2-New               L2-Old           Solver-Max-Delh
          0                 1           8             6    7     2       0.6718282986E-01       6    1    1       0.3755213203E+02      0.1188688399E+03      0.8766019008E-01      0.6718282986E-01
          0                 2           6             6    7     2      -0.4849200594E-02       6    1    1      -0.2266250569E+01      0.6097191136E+01      0.1188688399E+03     -0.4849200594E-02
          0                 3           4             6    7     2      -0.2707806343E-03       6   15    1      -0.1759820934E+00      0.5843966539E+00      0.6097191136E+01     -0.2707806343E-03
          0                 4           3             6    8     1      -0.2319795626E-04       6    8    1      -0.1394616353E-01      0.4978274840E-01      0.5843966539E+00     -0.2319795626E-04

    ------------------------------------------------
       NWT REQUIRED            4 OUTER ITERATIONS 
       AND A TOTAL OF         21 INNER ITERATIONS.
    ------------------------------------------------
                                                   Max.-Head-Change                        Max.-Flux-Residual
  Residual-Control   Outer-Iter.   Inner-Iter.     Column Row Layer    Max.-Head-Change    Column Row Layer    Max.-Flux-Residual            L2-New               L2-Old           Solver-Max-Delh
          0                 1           7             6    5     2       0.2928047420E-01       6   15    1       0.1758245918E+02      0.5413851989E+02      0.4978274840E-01      0.2928047420E-01
          0                 2           5             6    5     2      -0.2147403574E-02       6   15    1      -0.1197913440E+01      0.3039223937E+01      0.5413851989E+02     -0.2147403574E-02
          0                 3           4             6    5     2      -0.1190980098E-03       6   15    1      -0.9038447952E-01      0.2570375794E+00      0.3039223937E+01     -0.1190980098E-03
          0                 4           2             6    6     1      -0.1347192142E-04       6    7    1      -0.9928095504E-02      0.2987732413E-01      0.2570375794E+00     -0.1347192142E-04

    ------------------------------------------------
       NWT REQUIRED            4 OUTER ITERATIONS 
       AND A TOTAL OF         18 INNER ITERATIONS.
    ------------------------------------------------
                                                   Max.-Head-Change                        Max.-Flux-Residual
  Residual-Control   Outer-Iter.   Inner-Iter.     Column Row Layer    Max.-Head-Change    Column Row Layer    Max.-Flux-Residual            L2-New               L2-Old           Solver-Max-Delh
          0                 1           7             5   15     2       0.1144799814E-01       6   15    1       0.7891196325E+01      0.2003891746E+02      0.2987732413E-01      0.1144799814E-01
          0                 2           5             5   15     2      -0.9126185185E-03       6   15    1      -0.5447749998E+00      0.1216610057E+01      0.2003891746E+02     -0.9126185185E-03
          0                 3           3             5   15     2      -0.4911989918E-04       6   15    1      -0.4082952734E-01      0.1025304586E+00      0.1216610057E+01     -0.4911989918E-04

    ------------------------------------------------
       NWT REQUIRED            3 OUTER ITERATIONS 
       AND A TOTAL OF         15 INNER ITERATIONS.
    ------------------------------------------------
                                                   Max.-Head-Change                        Max.-Flux-Residual
  Residual-Control   Outer-Iter.   Inner-Iter.     Column Row Layer    Max.-Head-Change    Column Row Layer    Max.-Flux-Residual            L2-New               L2-Old           Solver-Max-Delh
          0                 1           6             1   11     3       0.6080897943E-02       1   15    1       0.3096701250E+01      0.7032753546E+01      0.1025304586E+00      0.6080897943E-02
          0                 2           4             1   11     3      -0.5180228920E-03       6   15    1      -0.2077725112E+00      0.4592170559E+00      0.7032753546E+01     -0.5180228920E-03
          0                 3           2             1   11     3      -0.2480295272E-04       6   15    1      -0.1836252812E-01      0.3907285449E-01      0.4592170559E+00     -0.2480295272E-04

    ------------------------------------------------
       NWT REQUIRED            3 OUTER ITERATIONS 
       AND A TOTAL OF         12 INNER ITERATIONS.
    ------------------------------------------------
                                                   Max.-Head-Change                        Max.-Flux-Residual
  Residual-Control   Outer-Iter.   Inner-Iter.     Column Row Layer    Max.-Head-Change    Column Row Layer    Max.-Flux-Residual            L2-New               L2-Old           Solver-Max-Delh
          0                 1           5             1   14     2       0.2975041091E-02       1   15    1       0.1645160039E+01      0.3797648829E+01      0.3907285449E-01      0.2975041091E-02
          0                 2           3             1   12     3      -0.2467267158E-03       1   15    1      -0.1166757060E+00      0.2368556504E+00      0.3797648829E+01     -0.2467267158E-03
          0                 3           2             1   11     3      -0.1511226010E-04       1   13    1      -0.1043484715E-01      0.2179366965E-01      0.2368556504E+00     -0.1511226010E-04

    ------------------------------------------------
       NWT REQUIRED            3 OUTER ITERATIONS 
       AND A TOTAL OF         10 INNER ITERATIONS.
    ------------------------------------------------
                                                   Max.-Head-Change                        Max.-Flux-Residual
  Residual-Control   Outer-Iter.   Inner-Iter.     Column Row Layer    Max.-Head-Change    Column Row Layer    Max.-Flux-Residual            L2-New               L2-Old           Solver-Max-Delh
          0                 1           5             1   13     2       0.1452603078E-02       1   15    1       0.6643953999E+00      0.2258492040E+01      0.2179366965E-01      0.1452603078E-02
          0                 2           3             1   13     2      -0.1221490920E-03       1   15    1      -0.5164404225E-01      0.1238708468E+00      0.2258492040E+01     -0.1221490920E-03
          0                 3           2             6    4     1       0.8014178516E-05       1   14    1      -0.9422914474E-02      0.2082813804E-01      0.1238708468E+00      0.8014178516E-05

    ------------------------------------------------
       NWT REQUIRED            3 OUTER ITERATIONS 
       AND A TOTAL OF         10 INNER ITERATIONS.
    ------------------------------------------------
                                                   Max.-Head-Change                        Max.-Flux-Residual
  Residual-Control   Outer-Iter.   Inner-Iter.     Column Row Layer    Max.-Head-Change    Column Row Layer    Max.-Flux-Residual            L2-New               L2-Old           Solver-Max-Delh
          0                 1           5             6    7     1      -0.7154303374E-03       6    8    1      -0.3306990231E+00      0.1148179001E+01      0.2082813804E-01     -0.7154303374E-03
          0                 2           3             6    8     2       0.4904308274E-04       1   14    1      -0.1977933262E-01      0.6095554063E-01      0.1148179001E+01      0.4904308274E-04

    ------------------------------------------------
       NWT REQUIRED            2 OUTER ITERATIONS 
       AND A TOTAL OF          8 INNER ITERATIONS.
    ------------------------------------------------
                                                   Max.-Head-Change                        Max.-Flux-Residual
  Residual-Control   Outer-Iter.   Inner-Iter.     Column Row Layer    Max.-Head-Change    Column Row Layer    Max.-Flux-Residual            L2-New               L2-Old           Solver-Max-Delh
          0                 1           4             1   11     3      -0.4018594045E-03       6    1    1      -0.1488787797E+00      0.5469688284E+00      0.6095554063E-01     -0.4018594045E-03
          0                 2           2             1   11     3       0.2905103521E-04       6   15    1       0.1327075990E-01      0.3544137259E-01      0.5469688284E+00      0.2905103521E-04

    ------------------------------------------------
       NWT REQUIRED            2 OUTER ITERATIONS 
       AND A TOTAL OF          6 INNER ITERATIONS.
    ------------------------------------------------
                                                   Max.-Head-Change                        Max.-Flux-Residual
  Residual-Control   Outer-Iter.   Inner-Iter.     Column Row Layer    Max.-Head-Change    Column Row Layer    Max.-Flux-Residual            L2-New               L2-Old           Solver-Max-Delh
          0                 1           4             1   11     3      -0.2593125479E-03       6    1    1      -0.7664774434E-01      0.2674030656E+00      0.3544137259E-01     -0.2593125479E-03
          0                 2           2             1   11     3       0.1912200921E-04       6   15    1       0.8722726634E-02      0.2673363571E-01      0.2674030656E+00      0.1912200921E-04

    ------------------------------------------------
       NWT REQUIRED            2 OUTER ITERATIONS 
       AND A TOTAL OF          6 INNER ITERATIONS.
    ------------------------------------------------

 OUTPUT CONTROL FOR STRESS PERIOD      1   TIME STEP     1
    SAVE HEAD FOR ALL LAYERS
    SAVE BUDGET
 UBDSV1 SAVING "         STORAGE" ON UNIT7013 AT TIME STEP    1, STRESS PERIOD   1
 UBDSV2 SAVING "   CONSTANT HEAD" ON UNIT7013 AT TIME STEP    1, STRESS PERIOD   1
 UBDSV1 SAVING "FLOW RIGHT FACE " ON UNIT7013 AT TIME STEP    1, STRESS PERIOD   1
 UBDSV1 SAVING "FLOW FRONT FACE " ON UNIT7013 AT TIME STEP    1, STRESS PERIOD   1
 UBDSV1 SAVING "FLOW LOWER FACE " ON UNIT7013 AT TIME STEP    1, STRESS PERIOD   1
 UBDSV4 SAVING "  STREAM LEAKAGE" ON UNIT7013 AT TIME STEP    1, STRESS PERIOD   1



 
 
 
 
 
 
 
 
 UBDSV3 SAVING "FARM  NET  RECH." ON UNIT7013 AT TIME STEP    1, STRESS PERIOD   1
 UBDSV4 SAVING " GHOST-NODE HEAD" ON UNIT7013 AT TIME STEP    1, STRESS PERIOD   1

 HEAD WILL BE SAVED ON UNIT 2213 AT END OF TIME STEP     1, STRESS PERIOD      1
1
  FLUX ACROSS PARENT-CHILD INTERFACE AT TIME STEP  1 IN STRESS PERIOD    1
  ------------------------------------------------------------------------
 G-N FLUX        PARENT        CHILD         DIFFERENCE      % DIFFERENCE
  RATE IN:      1.3740E+05    1.3739E+05     3.1250E-02        0.0000
 RATE OUT:      3.6819E-02    3.6764E-02     5.4870E-05        0.1491
 
 SOLVING FOR HEAD 
                                                   Max.-Head-Change                        Max.-Flux-Residual
  Residual-Control   Outer-Iter.   Inner-Iter.     Column Row Layer    Max.-Head-Change    Column Row Layer    Max.-Flux-Residual            L2-New               L2-Old           Solver-Max-Delh
          0                 1          10             1    6     1       0.2269762747E+02       5   14    1       0.1986628408E+04      0.1182119969E+05      0.2673363571E-01      0.2269762747E+02
          0                 2           9             1    6     1      -0.3996950104E+01       1   10    1       0.1026452957E+04      0.3214429753E+04      0.1182119969E+05     -0.3996950104E+01
          0                 3           8             1    6     1      -0.3083138686E+00       1   10    1       0.7594379376E+02      0.2248685157E+03      0.3214429753E+04     -0.3083138686E+00
          0                 4           7             1    6     1      -0.1614791430E-01       1   10    1       0.3884806297E+01      0.1153050855E+02      0.2248685157E+03     -0.1614791430E-01
          0                 5           4             1    6     1      -0.8120424603E-03       1   10    1       0.1979942980E+00      0.5776294356E+00      0.1153050855E+02     -0.8120424603E-03
          0                 6           3             1    6     1      -0.4161227337E-04       1   10    1       0.9895293973E-02      0.3329078905E-01      0.5776294356E+00     -0.4161227337E-04

    ------------------------------------------------
       NWT REQUIRED            6 OUTER ITERATIONS 
       AND A TOTAL OF         41 INNER ITERATIONS.
    ------------------------------------------------
                                                   Max.-Head-Change                        Max.-Flux-Residual
  Residual-Control   Outer-Iter.   Inner-Iter.     Column Row Layer    Max.-Head-Change    Column Row Layer    Max.-Flux-Residual            L2-New               L2-Old           Solver-Max-Delh
          0                 1          10             1   11     2       0.1962773338E+01       1   10    1       0.9446283871E+03      0.2396632145E+04      0.3329078905E-01      0.1962773338E+01
          0                 2           8             1   11     1      -0.1688166212E+00       1   10    1      -0.1080252953E+03      0.2403255426E+03      0.2396632145E+04     -0.1688166212E+00
          0                 3           7             1   11     1      -0.8548118872E-02       1   10    1      -0.5713511314E+01      0.1321375112E+02      0.2403255426E+03     -0.8548118872E-02
          0                 4           5             1   10     1      -0.4439845700E-03       1   10    1      -0.2971293612E+00      0.7375438621E+00      0.1321375112E+02     -0.4439845700E-03
          0                 5           3             1   11     2      -0.2170957962E-04       1   10    1      -0.1417913579E-01      0.4416406350E-01      0.7375438621E+00     -0.2170957962E-04

    ------------------------------------------------
       NWT REQUIRED            5 OUTER ITERATIONS 
       AND A TOTAL OF         33 INNER ITERATIONS.
    ------------------------------------------------
                                                   Max.-Head-Change                        Max.-Flux-Residual
  Residual-Control   Outer-Iter.   Inner-Iter.     Column Row Layer    Max.-Head-Change    Column Row Layer    Max.-Flux-Residual            L2-New               L2-Old           Solver-Max-Delh
          0                 1          10             1   11     1       0.3031401313E+01       1   10    1       0.1457868182E+04      0.4382013212E+04      0.4416406350E-01      0.3031401313E+01
          0                 2           9             1   11     1      -0.2681168937E+00       1   11    1      -0.1672869938E+03      0.4352337142E+03      0.4382013212E+04     -0.2681168937E+00
          0                 3           7             1   11     1      -0.1483023117E-01       1   10    1      -0.9795915248E+01      0.2524036165E+02      0.4352337142E+03     -0.1483023117E-01
          0                 4           5             1   11     1      -0.8050353674E-03       1   10    1      -0.5528799455E+00      0.1456197417E+01      0.2524036165E+02     -0.8050353674E-03
          0                 5           3             1   10     1      -0.4396030859E-04       1   10    1      -0.3107827622E-01      0.8278177364E-01      0.1456197417E+01     -0.4396030859E-04

    ------------------------------------------------
       NWT REQUIRED            5 OUTER ITERATIONS 
       AND A TOTAL OF         34 INNER ITERATIONS.
    ------------------------------------------------
                                                   Max.-Head-Change                        Max.-Flux-Residual
  Residual-Control   Outer-Iter.   Inner-Iter.     Column Row Layer    Max.-Head-Change    Column Row Layer    Max.-Flux-Residual            L2-New               L2-Old           Solver-Max-Delh
          0                 1          10             1   11     1       0.1960064235E+01       1   15    1       0.9931529925E+03      0.3283565457E+04      0.8278177364E-01      0.1960064235E+01
          0                 2           9             1   11     1      -0.1624737310E+00       1   12    1      -0.1010799267E+03      0.3054110444E+03      0.3283565457E+04     -0.1624737310E+00
          0                 3           7             1   11     1      -0.9336547363E-02       1   10    1      -0.5631183211E+01      0.1824375465E+02      0.3054110444E+03     -0.9336547363E-02
          0                 4           5             1   11     1      -0.5318167753E-03       1   10    1      -0.3362961971E+00      0.1094953919E+01      0.1824375465E+02     -0.5318167753E-03
          0                 5           3             1   11     1      -0.3145354523E-04       1   10    1      -0.2035507676E-01      0.6557031822E-01      0.1094953919E+01     -0.3145354523E-04

    ------------------------------------------------
       NWT REQUIRED            5 OUTER ITERATIONS 
       AND A TOTAL OF         34 INNER ITERATIONS.
    ------------------------------------------------
                                                   Max.-Head-Change                        Max.-Flux-Residual
  Residual-Control   Outer-Iter.   Inner-Iter.     Column Row Layer    Max.-Head-Change    Column Row Layer    Max.-Flux-Residual            L2-New               L2-Old           Solver-Max-Delh
          0                 1          10             1   11     1       0.8586386329E+00       1   15    1       0.5539896070E+03      0.1860479166E+04      0.6557031822E-01      0.8586386329E+00
          0                 2           8             1   12     1      -0.6790135758E-01       1   15    1      -0.5136374274E+02      0.1653676886E+03      0.1860479166E+04     -0.6790135758E-01
          0                 3           7             1   11     1      -0.3949029469E-02       1   15    1      -0.2916851489E+01      0.1006239027E+02      0.1653676886E+03     -0.3949029469E-02
          0                 4           5             6    8     1      -0.2385043829E-03       1   15    1      -0.1734258745E+00      0.6156200895E+00      0.1006239027E+02     -0.2385043829E-03
          0                 5           3             6    8     1      -0.1978615406E-04       1   15    1      -0.1484489714E-01      0.4551130295E-01      0.6156200895E+00     -0.1978615406E-04

    ------------------------------------------------
       NWT REQUIRED            5 OUTER ITERATIONS 
       AND A TOTAL OF         33 INNER ITERATIONS.
    ------------------------------------------------
                                                   Max.-Head-Change                        Max.-Flux-Residual
  Residual-Control   Outer-Iter.   Inner-Iter.     Column Row Layer    Max.-Head-Change    Column Row Layer    Max.-Flux-Residual            L2-New               L2-Old           Solver-Max-Delh
          0                 1           9             6   15     1       0.4129507858E+00       6   15    1       0.3104089688E+03      0.9175604057E+03      0.4551130295E-01      0.4129507858E+00
          0                 2           8             6   15     1      -0.3238451096E-01       6   15    1      -0.2886542811E+02      0.8045181687E+02      0.9175604057E+03     -0.3238451096E-01
          0                 3           6             6   15     1      -0.1876384585E-02       6   15    1      -0.1625328062E+01      0.4920696717E+01      0.8045181687E+02     -0.1876384585E-02
          0                 4           4             6   10     1      -0.1218418674E-03       6   15    1      -0.9485740180E-01      0.3040380570E+00      0.4920696717E+01     -0.1218418674E-03
          0                 5           3             6    1     1      -0.1544608737E-04       6    1    1      -0.1598857361E-01      0.3282638109E-01      0.3040380570E+00     -0.1544608737E-04

    ------------------------------------------------
       NWT REQUIRED            5 OUTER ITERATIONS 
       AND A TOTAL OF         30 INNER ITERATIONS.
    ------------------------------------------------
                                                   Max.-Head-Change                        Max.-Flux-Residual
  Residual-Control   Outer-Iter.   Inner-Iter.     Column Row Layer    Max.-Head-Change    Column Row Layer    Max.-Flux-Residual            L2-New               L2-Old           Solver-Max-Delh
          0                 1           9             6   15     1       0.2002357069E+00       6   15    1       0.1557393619E+03      0.4129744729E+03      0.3282638109E-01      0.2002357069E+00
          0                 2           7             6   15     1      -0.1575006487E-01       6   15    1      -0.1447427460E+02      0.3636216927E+02      0.4129744729E+03     -0.1575006487E-01
          0                 3           5             6   15     1      -0.9040028410E-03       6   15    1      -0.8065372222E+00      0.2201011359E+01      0.3636216927E+02     -0.9040028410E-03
          0                 4           4             6   15     1      -0.5587924083E-04       6   15    1      -0.5217237168E-01      0.1367790195E+00      0.2201011359E+01     -0.5587924083E-04

    ------------------------------------------------
       NWT REQUIRED            4 OUTER ITERATIONS 
       AND A TOTAL OF         25 INNER ITERATIONS.
    ------------------------------------------------
                                                   Max.-Head-Change                        Max.-Flux-Residual
  Residual-Control   Outer-Iter.   Inner-Iter.     Column Row Layer    Max.-Head-Change    Column Row Layer    Max.-Flux-Residual            L2-New               L2-Old           Solver-Max-Delh
          0                 1           8             6   15     1       0.8459132103E-01       6   15    1       0.6792603808E+02      0.1661315125E+03      0.1367790195E+00      0.8459132103E-01
          0                 2           7             6   15     1      -0.6677762507E-02       6   15    1      -0.6321208385E+01      0.1486414806E+02      0.1661315125E+03     -0.6677762507E-02
          0                 3           5             6   15     1      -0.3802413952E-03       6   15    1      -0.3517379525E+00      0.8811331252E+00      0.1486414806E+02     -0.3802413952E-03
          0                 4           3             5   15     1      -0.2391593197E-04       3   15    1      -0.1780602580E-01      0.5822231052E-01      0.8811331252E+00     -0.2391593197E-04

    ------------------------------------------------
       NWT REQUIRED            4 OUTER ITERATIONS 
       AND A TOTAL OF         23 INNER ITERATIONS.
    ------------------------------------------------
                                                   Max.-Head-Change                        Max.-Flux-Residual
  Residual-Control   Outer-Iter.   Inner-Iter.     Column Row Layer    Max.-Head-Change    Column Row Layer    Max.-Flux-Residual            L2-New               L2-Old           Solver-Max-Delh
          0                 1           7             6   15     1       0.2932752737E-01       6   15    1       0.2437909217E+02      0.5580185028E+02      0.5822231052E-01      0.2932752737E-01
          0                 2           6             6   15     1      -0.2317960936E-02       6   15    1      -0.2261317328E+01      0.5107568294E+01      0.5580185028E+02     -0.2317960936E-02
          0                 3           4             6   15     1      -0.1374206759E-03       6   15    1      -0.1354789828E+00      0.2976084638E+00      0.5107568294E+01     -0.1374206759E-03
          0                 4           2             2   15     1      -0.7238788581E-05       2   15    1      -0.9068407177E-02      0.1966745019E-01      0.2976084638E+00     -0.7238788581E-05

    ------------------------------------------------
       NWT REQUIRED            4 OUTER ITERATIONS 
       AND A TOTAL OF         19 INNER ITERATIONS.
    ------------------------------------------------
                                                   Max.-Head-Change                        Max.-Flux-Residual
  Residual-Control   Outer-Iter.   Inner-Iter.     Column Row Layer    Max.-Head-Change    Column Row Layer    Max.-Flux-Residual            L2-New               L2-Old           Solver-Max-Delh
          0                 1           6             1   13     3       0.9779796837E-02       1   15    1       0.6256822029E+01      0.1821570145E+02      0.1966745019E-01      0.9779796837E-02
          0                 2           5             1   13     3      -0.8479756055E-03       1   15    1      -0.5762930969E+00      0.1669565890E+01      0.1821570145E+02     -0.8479756055E-03
          0                 3           3             1   13     3      -0.4155892398E-04       1   15    1      -0.4217545257E-01      0.1003082198E+00      0.1669565890E+01     -0.4155892398E-04

    ------------------------------------------------
       NWT REQUIRED            3 OUTER ITERATIONS 
       AND A TOTAL OF         14 INNER ITERATIONS.
    ------------------------------------------------
                                                   Max.-Head-Change                        Max.-Flux-Residual
  Residual-Control   Outer-Iter.   Inner-Iter.     Column Row Layer    Max.-Head-Change    Column Row Layer    Max.-Flux-Residual            L2-New               L2-Old           Solver-Max-Delh
          0                 1           6             6    8     1      -0.7751600376E-02       6    8    1      -0.3877295914E+01      0.1248676354E+02      0.1003082198E+00     -0.7751600376E-02
          0                 2           5             6    8     2       0.6153261092E-03       6    9    1       0.3431984193E+00      0.1097252435E+01      0.1248676354E+02      0.6153261092E-03
          0                 3           3             6    7     1       0.4018095241E-04       6    7    1       0.2500336806E-01      0.6841206257E-01      0.1097252435E+01      0.4018095241E-04

    ------------------------------------------------
       NWT REQUIRED            3 OUTER ITERATIONS 
       AND A TOTAL OF         14 INNER ITERATIONS.
    ------------------------------------------------
                                                   Max.-Head-Change                        Max.-Flux-Residual
  Residual-Control   Outer-Iter.   Inner-Iter.     Column Row Layer    Max.-Head-Change    Column Row Layer    Max.-Flux-Residual            L2-New               L2-Old           Solver-Max-Delh
          0                 1           6             6    7     1      -0.5046692483E-02       6    7    1      -0.2413135766E+01      0.8935381817E+01      0.6841206257E-01     -0.5046692483E-02
          0                 2           5             6    7     2       0.4071430146E-03       6    9    1       0.2116565441E+00      0.7770311642E+00      0.8935381817E+01      0.4071430146E-03
          0                 3           3             6    8     1       0.2334027801E-04       6    1    1       0.1591062511E-01      0.5066383421E-01      0.7770311642E+00      0.2334027801E-04

    ------------------------------------------------
       NWT REQUIRED            3 OUTER ITERATIONS 
       AND A TOTAL OF         14 INNER ITERATIONS.
    ------------------------------------------------
                                                   Max.-Head-Change                        Max.-Flux-Residual
  Residual-Control   Outer-Iter.   Inner-Iter.     Column Row Layer    Max.-Head-Change    Column Row Layer    Max.-Flux-Residual            L2-New               L2-Old           Solver-Max-Delh
          0                 1           6             6    7     1      -0.2617301327E-02       6   15    1      -0.1500167918E+01      0.5186301092E+01      0.5066383421E-01     -0.2617301327E-02
          0                 2           4             6    7     2       0.2127632799E-03       6   15    1       0.1416880841E+00      0.4501718608E+00      0.5186301092E+01      0.2127632799E-03
          0                 3           3             6    8     1       0.1800255203E-04       6    7    1       0.1053428600E-01      0.3775913020E-01      0.4501718608E+00      0.1800255203E-04

    ------------------------------------------------
       NWT REQUIRED            3 OUTER ITERATIONS 
       AND A TOTAL OF         13 INNER ITERATIONS.
    ------------------------------------------------
                                                   Max.-Head-Change                        Max.-Flux-Residual
  Residual-Control   Outer-Iter.   Inner-Iter.     Column Row Layer    Max.-Head-Change    Column Row Layer    Max.-Flux-Residual            L2-New               L2-Old           Solver-Max-Delh
          0                 1           5             5   15     1      -0.1221002498E-02       6   15    1      -0.9317153581E+00      0.2645050560E+01      0.3775913020E-01     -0.1221002498E-02
          0                 2           4             5   15     1       0.9764229142E-04       6   15    1       0.8870807616E-01      0.2327654695E+00      0.2645050560E+01      0.9764229142E-04

    ------------------------------------------------
       NWT REQUIRED            2 OUTER ITERATIONS 
       AND A TOTAL OF          9 INNER ITERATIONS.
    ------------------------------------------------
                                                   Max.-Head-Change                        Max.-Flux-Residual
  Residual-Control   Outer-Iter.   Inner-Iter.     Column Row Layer    Max.-Head-Change    Column Row Layer    Max.-Flux-Residual            L2-New               L2-Old           Solver-Max-Delh
          0                 1           5             2   15     2      -0.6725175065E-03       1   15    1      -0.4881029003E+00      0.1284966900E+01      0.2327654695E+00     -0.6725175065E-03
          0                 2           4             1   15     2       0.5681444407E-04       6   15    1       0.4588707548E-01      0.1120319095E+00      0.1284966900E+01      0.5681444407E-04

    ------------------------------------------------
       NWT REQUIRED            2 OUTER ITERATIONS 
       AND A TOTAL OF          9 INNER ITERATIONS.
    ------------------------------------------------
                                                   Max.-Head-Change                        Max.-Flux-Residual
  Residual-Control   Outer-Iter.   Inner-Iter.     Column Row Layer    Max.-Head-Change    Column Row Layer    Max.-Flux-Residual            L2-New               L2-Old           Solver-Max-Delh
          0                 1           5             1   12     2      -0.4201924336E-03       1   15    1      -0.2810501987E+00      0.6146975725E+00      0.1120319095E+00     -0.4201924336E-03
          0                 2           3             1   12     2       0.3624302599E-04       6   15    1       0.2980019833E-01      0.6508877708E-01      0.6146975725E+00      0.3624302599E-04

    ------------------------------------------------
       NWT REQUIRED            2 OUTER ITERATIONS 
       AND A TOTAL OF          8 INNER ITERATIONS.
    ------------------------------------------------
                                                   Max.-Head-Change                        Max.-Flux-Residual
  Residual-Control   Outer-Iter.   Inner-Iter.     Column Row Layer    Max.-Head-Change    Column Row Layer    Max.-Flux-Residual            L2-New               L2-Old           Solver-Max-Delh
          0                 1           4             1   13     2      -0.1937927632E-03       1   15    1      -0.1431842981E+00      0.2905666465E+00      0.6508877708E-01     -0.1937927632E-03
          0                 2           2             1   15     1       0.1834170136E-04       1   15    1       0.2360079536E-01      0.3589933490E-01      0.2905666465E+00      0.1834170136E-04

    ------------------------------------------------
       NWT REQUIRED            2 OUTER ITERATIONS 
       AND A TOTAL OF          6 INNER ITERATIONS.
    ------------------------------------------------

 OUTPUT CONTROL FOR STRESS PERIOD      1   TIME STEP     2
    SAVE BUDGET
 UBDSV1 SAVING "         STORAGE" ON UNIT7013 AT TIME STEP    2, STRESS PERIOD   1
 UBDSV2 SAVING "   CONSTANT HEAD" ON UNIT7013 AT TIME STEP    2, STRESS PERIOD   1
 UBDSV1 SAVING "FLOW RIGHT FACE " ON UNIT7013 AT TIME STEP    2, STRESS PERIOD   1
 UBDSV1 SAVING "FLOW FRONT FACE " ON UNIT7013 AT TIME STEP    2, STRESS PERIOD   1
 UBDSV1 SAVING "FLOW LOWER FACE " ON UNIT7013 AT TIME STEP    2, STRESS PERIOD   1
 UBDSV4 SAVING "  STREAM LEAKAGE" ON UNIT7013 AT TIME STEP    2, STRESS PERIOD   1



 
 
 
 
 
 
 
 
 UBDSV3 SAVING "FARM  NET  RECH." ON UNIT7013 AT TIME STEP    2, STRESS PERIOD   1
 UBDSV4 SAVING " GHOST-NODE HEAD" ON UNIT7013 AT TIME STEP    2, STRESS PERIOD   1
1
  VOLUMETRIC BUDGET FOR ENTIRE MODEL AT END OF TIME STEP    2 IN STRESS PERIOD      1
  ------------------------------------------------------------------------------

     CUMULATIVE VOLUMES      L**3       RATES FOR THIS TIME STEP      L**3/T
     ------------------                 ------------------------

           IN:                                      IN:
           ---                                      ---
             STORAGE =       62750.4453               STORAGE =         345.6096
       CONSTANT HEAD =           0.0000         CONSTANT HEAD =           0.0000
      STREAM LEAKAGE =       69623.3047        STREAM LEAKAGE =        2288.7346
          FARM WELLS =           0.0000            FARM WELLS =           0.0000
    FARM  NET  RECH. =       24692.9141      FARM  NET  RECH. =         811.7328
     GHOST-NODE HEAD =     2814867.7500       GHOST-NODE HEAD =       47671.9453

            TOTAL IN =     2971934.5000              TOTAL IN =       51118.0234

          OUT:                                     OUT:
          ----                                     ----
             STORAGE =     2971933.5000               STORAGE =       51118.0195
       CONSTANT HEAD =           0.0000         CONSTANT HEAD =           0.0000
      STREAM LEAKAGE =           0.0000        STREAM LEAKAGE =           0.0000
          FARM WELLS =           0.0000            FARM WELLS =           0.0000
    FARM  NET  RECH. =           0.0000      FARM  NET  RECH. =           0.0000
     GHOST-NODE HEAD =           0.5592       GHOST-NODE HEAD =           0.0000

           TOTAL OUT =     2971934.0000             TOTAL OUT =       51118.0195

            IN - OUT =           0.5000              IN - OUT =       3.9062E-03

 PERCENT DISCREPANCY =           0.00     PERCENT DISCREPANCY =           0.00






          TIME SUMMARY AT END OF TIME STEP     2 IN STRESS PERIOD      1
                    SECONDS     MINUTES      HOURS       DAYS        YEARS
                    -----------------------------------------------------------
   TIME STEP LENGTH 1.31414E+06  21902.      365.04      15.210     4.16427E-02
 STRESS PERIOD TIME 2.62829E+06  43805.      730.08      30.420     8.32854E-02
         TOTAL TIME 2.62829E+06  43805.      730.08      30.420     8.32854E-02
1
1
  FLUX ACROSS PARENT-CHILD INTERFACE AT TIME STEP  2 IN STRESS PERIOD    1
  ------------------------------------------------------------------------
 G-N FLUX        PARENT        CHILD         DIFFERENCE      % DIFFERENCE
  RATE IN:      4.7673E+04    4.7672E+04     8.2031E-01        0.0017
 RATE OUT:      0.0000E+00    0.0000E+00     0.0000E+00        0.0000
1
                            STRESS PERIOD NO.      2, LENGTH =   30.42000    
                            -----------------------------------------------

                              NUMBER OF TIME STEPS =     2

                               MULTIPLIER FOR DELT =     1.000

                            INITIAL TIME STEP SIZE =   15.21000    

 REUSING STREAM SEGMENT DATA FROM LAST STRESS PERIOD
 WELL NO. LAYER    ROW    COL  F-WELL ID    FARM ID         QMAX         QMAXRESET       LGRGRID         
 --------------------------------------------------------------------------------------------------------
       1      1      2      2          5          2      2.0000E+00     0    0
       2      1      5      5          6          2      1.0000E+00     0    0

 Parameter:  WELLS1
 WELL NO. LAYER    ROW    COL  F-WELL ID    FARM ID         QMAX         QMAXRESET       LGRGRID         
 --------------------------------------------------------------------------------------------------------
       3      1      2      2          5          2      2.0000E+03              0              0
       4      1      5      5          6          2      1.0000E+03              0              0

 NUMBER OF ACTIVE FARM WELLS:        4

 FARM-ID  NUMBER OF WELLS PER FARM  TOTAL MAX.CAPACITY PER FARM
       1                         0                       0.0000
       2                         4                    3003.0000
       3                         0                       0.0000
       4                         0                       0.0000
       5                         0                       0.0000
       6                         0                       0.0000
       7                         0                       0.0000
       8                         0                       0.0000

Transpiratory and Evaporative Fractions of Crop Consumptive Use
    % Transpiration % Evap. for Precip. % Evap. for Irrig.
    3          0.845          0.155          0.155
    5          0.783          0.217          0.000

FRACTIONS OF IN-EFFICIENT LOSSES TO SW-RUNOFF FROM 
     PRECIPITATION:  IRRIGATION:
    3          0.600          0.500
    5          0.850          0.000
 
 SOLVING FOR HEAD 
                                                   Max.-Head-Change                        Max.-Flux-Residual
  Residual-Control   Outer-Iter.   Inner-Iter.     Column Row Layer    Max.-Head-Change    Column Row Layer    Max.-Flux-Residual            L2-New               L2-Old           Solver-Max-Delh
          0                 1          10             1    6     1       0.1135455015E+02       1   14    1       0.1012193856E+04      0.5894736718E+04      0.3589933490E-01      0.1135455015E+02
          0                 2           9             1    6     1      -0.1425082959E+01       1    6    1      -0.2105840246E+03      0.8463783834E+03      0.5894736718E+04     -0.1425082959E+01
          0                 3           8             1    6     1      -0.8245860315E-01       1    6    1      -0.1355238437E+02      0.4781361440E+02      0.8463783834E+03     -0.8245860315E-01
          0                 4           6             1    6     1      -0.4181415568E-02       1    6    1      -0.6894687048E+00      0.2403125096E+01      0.4781361440E+02     -0.4181415568E-02
          0                 5           4             1    6     1      -0.2105473633E-03       1    6    1      -0.3451859934E-01      0.1209226959E+00      0.2403125096E+01     -0.2105473633E-03
          0                 6           2             1    6     1      -0.1000031241E-04       3   15    1      -0.6827583362E-02      0.1622366723E-01      0.1209226959E+00     -0.1000031241E-04

    ------------------------------------------------
       NWT REQUIRED            6 OUTER ITERATIONS 
       AND A TOTAL OF         39 INNER ITERATIONS.
    ------------------------------------------------
[...]

    ------------------------------------------------
       NWT REQUIRED            2 OUTER ITERATIONS 
       AND A TOTAL OF          9 INNER ITERATIONS.
    ------------------------------------------------
                                                   Max.-Head-Change                        Max.-Flux-Residual
  Residual-Control   Outer-Iter.   Inner-Iter.     Column Row Layer    Max.-Head-Change    Column Row Layer    Max.-Flux-Residual            L2-New               L2-Old           Solver-Max-Delh
          0                 1           5             2    1     2      -0.7047875565E-03       1   15    1      -0.4077247838E+00      0.1423362653E+01      0.1951523242E+00     -0.7047875565E-03
          0                 2           4             1    1     1       0.6046040451E-04       3   15    1       0.3958753275E-01      0.1378712489E+00      0.1423362653E+01      0.6046040451E-04

    ------------------------------------------------
       NWT REQUIRED            2 OUTER ITERATIONS 
       AND A TOTAL OF          9 INNER ITERATIONS.
    ------------------------------------------------
                                                   Max.-Head-Change                        Max.-Flux-Residual
  Residual-Control   Outer-Iter.   Inner-Iter.     Column Row Layer    Max.-Head-Change    Column Row Layer    Max.-Flux-Residual            L2-New               L2-Old           Solver-Max-Delh
          0                 1           5             1    1     2      -0.4207340544E-03       1   15    1      -0.3574166670E+00      0.1045271329E+01      0.1378712489E+00     -0.4207340544E-03
          0                 2           4             1    1     2       0.3547659652E-04       1   15    1       0.3597704897E-01      0.1099614422E+00      0.1045271329E+01      0.3547659652E-04

    ------------------------------------------------
       NWT REQUIRED            2 OUTER ITERATIONS 
       AND A TOTAL OF          9 INNER ITERATIONS.
    ------------------------------------------------
                                                   Max.-Head-Change                        Max.-Flux-Residual
  Residual-Control   Outer-Iter.   Inner-Iter.     Column Row Layer    Max.-Head-Change    Column Row Layer    Max.-Flux-Residual            L2-New               L2-Old           Solver-Max-Delh
          0                 1           4             5   15     2      -0.2384845408E-03       1   15    1      -0.2194910708E+00      0.6051894034E+00      0.1099614422E+00     -0.2384845408E-03
          0                 2           3             5   15     2       0.2044462277E-04       1   15    1       0.2276225924E-01      0.5793977715E-01      0.6051894034E+00      0.2044462277E-04

    ------------------------------------------------
       NWT REQUIRED            2 OUTER ITERATIONS 
       AND A TOTAL OF          7 INNER ITERATIONS.
    ------------------------------------------------

 OUTPUT CONTROL FOR STRESS PERIOD     24   TIME STEP     1
    SAVE BUDGET
 UBDSV1 SAVING "         STORAGE" ON UNIT7013 AT TIME STEP    1, STRESS PERIOD  24
 UBDSV2 SAVING "   CONSTANT HEAD" ON UNIT7013 AT TIME STEP    1, STRESS PERIOD  24
 UBDSV1 SAVING "FLOW RIGHT FACE " ON UNIT7013 AT TIME STEP    1, STRESS PERIOD  24
 UBDSV1 SAVING "FLOW FRONT FACE " ON UNIT7013 AT TIME STEP    1, STRESS PERIOD  24
 UBDSV1 SAVING "FLOW LOWER FACE " ON UNIT7013 AT TIME STEP    1, STRESS PERIOD  24
 UBDSV4 SAVING "  STREAM LEAKAGE" ON UNIT7013 AT TIME STEP    1, STRESS PERIOD  24



 
 
 
 
 
 
 
 
 UBDSV3 SAVING "FARM  NET  RECH." ON UNIT7013 AT TIME STEP    1, STRESS PERIOD  24
 UBDSV4 SAVING " GHOST-NODE HEAD" ON UNIT7013 AT TIME STEP    1, STRESS PERIOD  24
1
  FLUX ACROSS PARENT-CHILD INTERFACE AT TIME STEP  1 IN STRESS PERIOD   24
  ------------------------------------------------------------------------
 G-N FLUX        PARENT        CHILD         DIFFERENCE      % DIFFERENCE
  RATE IN:      2.4499E+03    2.4501E+03    -1.9653E-01       -0.0080
 RATE OUT:      3.6818E+03    3.6815E+03     3.0151E-01        0.0082
 
 SOLVING FOR HEAD 
                                                   Max.-Head-Change                        Max.-Flux-Residual
  Residual-Control   Outer-Iter.   Inner-Iter.     Column Row Layer    Max.-Head-Change    Column Row Layer    Max.-Flux-Residual            L2-New               L2-Old           Solver-Max-Delh
          0                 1           9             1    8     1       0.2776760354E+00       1   15    1       0.1329797495E+03      0.4761871600E+03      0.5793977715E-01      0.2776760354E+00
          0                 2           8             1    8     1      -0.2396180906E-01       1   15    1      -0.1324184736E+02      0.4675437459E+02      0.4761871600E+03     -0.2396180906E-01
          0                 3           6             1    8     1      -0.1210488814E-02       1   15    1      -0.6692463712E+00      0.2403395202E+01      0.4675437459E+02     -0.1210488814E-02
          0                 4           4             1    9     1      -0.6125458857E-04       6   14    1      -0.3367411433E-01      0.1232173558E+00      0.2403395202E+01     -0.6125458857E-04

    ------------------------------------------------
       NWT REQUIRED            4 OUTER ITERATIONS 
       AND A TOTAL OF         27 INNER ITERATIONS.
    ------------------------------------------------
                                                   Max.-Head-Change                        Max.-Flux-Residual
  Residual-Control   Outer-Iter.   Inner-Iter.     Column Row Layer    Max.-Head-Change    Column Row Layer    Max.-Flux-Residual            L2-New               L2-Old           Solver-Max-Delh
          0                 1           9             1   11     2       0.9627297580E-01       6    1    1       0.6401682780E+02      0.2079336302E+03      0.1232173558E+00      0.9627297580E-01
          0                 2           7             1   11     2      -0.8284050685E-02       6    1    1      -0.6453129334E+01      0.2092346614E+02      0.2079336302E+03     -0.8284050685E-02
          0                 3           5             1   11     2      -0.4177612667E-03       6    1    1      -0.3185106994E+00      0.1046549905E+01      0.2092346614E+02     -0.4177612667E-03
          0                 4           3             6    1     1      -0.2171043871E-04       6    1    1      -0.2279091079E-01      0.5382284726E-01      0.1046549905E+01     -0.2171043871E-04

    ------------------------------------------------
       NWT REQUIRED            4 OUTER ITERATIONS 
       AND A TOTAL OF         24 INNER ITERATIONS.
    ------------------------------------------------
                                                   Max.-Head-Change                        Max.-Flux-Residual
  Residual-Control   Outer-Iter.   Inner-Iter.     Column Row Layer    Max.-Head-Change    Column Row Layer    Max.-Flux-Residual            L2-New               L2-Old           Solver-Max-Delh
          0                 1           8             1   11     2       0.4794557484E-01       6    1    1       0.3304197422E+02      0.1022793492E+03      0.5382284726E-01      0.4794557484E-01
          0                 2           7             1   11     2      -0.4122070032E-02       6    1    1      -0.3328842987E+01      0.1022985213E+02      0.1022793492E+03     -0.4122070032E-02
          0                 3           4             1   11     2      -0.2071883505E-03       6    1    1      -0.1647449810E+00      0.5118932414E+00      0.1022985213E+02     -0.2071883505E-03
          0                 4           3             1    6     3      -0.1163740628E-04       6    1    1      -0.1049335429E-01      0.3063494477E-01      0.5118932414E+00     -0.1163740628E-04

    ------------------------------------------------
       NWT REQUIRED            4 OUTER ITERATIONS 
       AND A TOTAL OF         22 INNER ITERATIONS.
    ------------------------------------------------
                                                   Max.-Head-Change                        Max.-Flux-Residual
  Residual-Control   Outer-Iter.   Inner-Iter.     Column Row Layer    Max.-Head-Change    Column Row Layer    Max.-Flux-Residual            L2-New               L2-Old           Solver-Max-Delh
          0                 1           8             1    1     2       0.2049867692E-01       6    1    1       0.1499098294E+02      0.4230224427E+02      0.3063494477E-01      0.2049867692E-01
          0                 2           6             1    1     2      -0.1770378594E-02       6    1    1      -0.1503690440E+01      0.4234660674E+01      0.4230224427E+02     -0.1770378594E-02
          0                 3           4             1    1     2      -0.8817008129E-04       6    1    1      -0.7945550547E-01      0.2158280359E+00      0.4234660674E+01     -0.8817008129E-04

    ------------------------------------------------
       NWT REQUIRED            3 OUTER ITERATIONS 
       AND A TOTAL OF         18 INNER ITERATIONS.
    ------------------------------------------------
                                                   Max.-Head-Change                        Max.-Flux-Residual
  Residual-Control   Outer-Iter.   Inner-Iter.     Column Row Layer    Max.-Head-Change    Column Row Layer    Max.-Flux-Residual            L2-New               L2-Old           Solver-Max-Delh
          0                 1           7             6    1     2       0.7458394626E-02       6    1    1       0.5769857975E+01      0.1388614811E+02      0.2158280359E+00      0.7458394626E-02
          0                 2           5             6    1     2      -0.6443262355E-03       6    1    1      -0.5821292709E+00      0.1391196507E+01      0.1388614811E+02     -0.6443262355E-03
          0                 3           3             6    1     1      -0.3462174619E-04       6    1    1      -0.3728859336E-01      0.7613313640E-01      0.1391196507E+01     -0.3462174619E-04

    ------------------------------------------------
       NWT REQUIRED            3 OUTER ITERATIONS 
       AND A TOTAL OF         15 INNER ITERATIONS.
    ------------------------------------------------
                                                   Max.-Head-Change                        Max.-Flux-Residual
  Residual-Control   Outer-Iter.   Inner-Iter.     Column Row Layer    Max.-Head-Change    Column Row Layer    Max.-Flux-Residual            L2-New               L2-Old           Solver-Max-Delh
          0                 1           6             6   15     3       0.2298647371E-02       6    1    1       0.1604701108E+01      0.4066014661E+01      0.7613313640E-01      0.2298647371E-02
          0                 2           4             6   15     3      -0.1981427606E-03       6    1    1      -0.1712084269E+00      0.4096923981E+00      0.4066014661E+01     -0.1981427606E-03
          0                 3           2             6   15     3      -0.9746737980E-05       1   12    1       0.1021038438E-01      0.2780729599E-01      0.4096923981E+00     -0.9746737980E-05

    ------------------------------------------------
       NWT REQUIRED            3 OUTER ITERATIONS 
       AND A TOTAL OF         12 INNER ITERATIONS.
    ------------------------------------------------
                                                   Max.-Head-Change                        Max.-Flux-Residual
  Residual-Control   Outer-Iter.   Inner-Iter.     Column Row Layer    Max.-Head-Change    Column Row Layer    Max.-Flux-Residual            L2-New               L2-Old           Solver-Max-Delh
          0                 1           5             1   11     1      -0.1633572449E-02       1   12    1      -0.1243336623E+01      0.2603321795E+01      0.2780729599E-01     -0.1633572449E-02
          0                 2           4             1   11     2       0.1402367082E-03       1   12    1       0.1254074274E+00      0.2590525647E+00      0.2603321795E+01      0.1402367082E-03
          0                 3           2             1    1     1       0.6979538221E-05       1   10    1       0.1053145574E-01      0.1953630972E-01      0.2590525647E+00      0.6979538221E-05

    ------------------------------------------------
       NWT REQUIRED            3 OUTER ITERATIONS 
       AND A TOTAL OF         11 INNER ITERATIONS.
    ------------------------------------------------
                                                   Max.-Head-Change                        Max.-Flux-Residual
  Residual-Control   Outer-Iter.   Inner-Iter.     Column Row Layer    Max.-Head-Change    Column Row Layer    Max.-Flux-Residual            L2-New               L2-Old           Solver-Max-Delh
          0                 1           5             1    1     2      -0.1017602674E-02       1   10    1      -0.6459325895E+00      0.2005789970E+01      0.1953630972E-01     -0.1017602674E-02
          0                 2           4             1    1     2       0.8650367711E-04       1   10    1       0.6677468680E-01      0.1986609515E+00      0.2005789970E+01      0.8650367711E-04

    ------------------------------------------------
       NWT REQUIRED            2 OUTER ITERATIONS 
       AND A TOTAL OF          9 INNER ITERATIONS.
    ------------------------------------------------
                                                   Max.-Head-Change                        Max.-Flux-Residual
  Residual-Control   Outer-Iter.   Inner-Iter.     Column Row Layer    Max.-Head-Change    Column Row Layer    Max.-Flux-Residual            L2-New               L2-Old           Solver-Max-Delh
          0                 1           5             1    1     2      -0.7405387514E-03       6    1    1      -0.3559172642E+00      0.1292105952E+01      0.1986609515E+00     -0.7405387514E-03
          0                 2           4             1    1     2       0.6287168936E-04       6    1    1       0.3595513478E-01      0.1315855626E+00      0.1292105952E+01      0.6287168936E-04

    ------------------------------------------------
       NWT REQUIRED            2 OUTER ITERATIONS 
       AND A TOTAL OF          9 INNER ITERATIONS.
    ------------------------------------------------
                                                   Max.-Head-Change                        Max.-Flux-Residual
  Residual-Control   Outer-Iter.   Inner-Iter.     Column Row Layer    Max.-Head-Change    Column Row Layer    Max.-Flux-Residual            L2-New               L2-Old           Solver-Max-Delh
          0                 1           5             2    1     2      -0.4028035298E-03       6    1    1      -0.2439806383E+00      0.7274303996E+00      0.1315855626E+00     -0.4028035298E-03
          0                 2           3             2    1     2       0.3380169009E-04       6    1    1       0.2931454085E-01      0.7582956350E-01      0.7274303996E+00      0.3380169009E-04

    ------------------------------------------------
       NWT REQUIRED            2 OUTER ITERATIONS 
       AND A TOTAL OF          8 INNER ITERATIONS.
    ------------------------------------------------
                                                   Max.-Head-Change                        Max.-Flux-Residual
  Residual-Control   Outer-Iter.   Inner-Iter.     Column Row Layer    Max.-Head-Change    Column Row Layer    Max.-Flux-Residual            L2-New               L2-Old           Solver-Max-Delh
          0                 1           4             1    1     2      -0.2021877734E-03       6    1    1      -0.1492689651E+00      0.3753405187E+00      0.7582956350E-01     -0.2021877734E-03
          0                 2           3             3    1     1       0.1717060019E-04       3    1    1       0.1493646821E-01      0.3711997055E-01      0.3753405187E+00      0.1717060019E-04

    ------------------------------------------------
       NWT REQUIRED            2 OUTER ITERATIONS 
       AND A TOTAL OF          7 INNER ITERATIONS.
    ------------------------------------------------

 OUTPUT CONTROL FOR STRESS PERIOD     24   TIME STEP     2
    PRINT BUDGET
    SAVE HEAD FOR ALL LAYERS
    SAVE BUDGET
 UBDSV1 SAVING "         STORAGE" ON UNIT7013 AT TIME STEP    2, STRESS PERIOD  24
 UBDSV2 SAVING "   CONSTANT HEAD" ON UNIT7013 AT TIME STEP    2, STRESS PERIOD  24
 UBDSV1 SAVING "FLOW RIGHT FACE " ON UNIT7013 AT TIME STEP    2, STRESS PERIOD  24
 UBDSV1 SAVING "FLOW FRONT FACE " ON UNIT7013 AT TIME STEP    2, STRESS PERIOD  24
 UBDSV1 SAVING "FLOW LOWER FACE " ON UNIT7013 AT TIME STEP    2, STRESS PERIOD  24
 UBDSV4 SAVING "  STREAM LEAKAGE" ON UNIT7013 AT TIME STEP    2, STRESS PERIOD  24



 
 
 
 
 
 
 
 
 UBDSV3 SAVING "FARM  NET  RECH." ON UNIT7013 AT TIME STEP    2, STRESS PERIOD  24
 UBDSV4 SAVING " GHOST-NODE HEAD" ON UNIT7013 AT TIME STEP    2, STRESS PERIOD  24

 HEAD WILL BE SAVED ON UNIT 2213 AT END OF TIME STEP     2, STRESS PERIOD     24
1
  VOLUMETRIC BUDGET FOR ENTIRE MODEL AT END OF TIME STEP    2 IN STRESS PERIOD     24
  ------------------------------------------------------------------------------

     CUMULATIVE VOLUMES      L**3       RATES FOR THIS TIME STEP      L**3/T
     ------------------                 ------------------------

           IN:                                      IN:
           ---                                      ---
             STORAGE =      209994.9375               STORAGE =           0.0000
       CONSTANT HEAD =           0.0000         CONSTANT HEAD =           0.0000
      STREAM LEAKAGE =      626502.8125        STREAM LEAKAGE =        1563.5706
          FARM WELLS =           0.0000            FARM WELLS =           0.0000
    FARM  NET  RECH. =      368230.1562      FARM  NET  RECH. =         781.5877
     GHOST-NODE HEAD =     4987149.0000       GHOST-NODE HEAD =        2573.2656

            TOTAL IN =     6191877.0000              TOTAL IN =        4918.4238

          OUT:                                     OUT:
          ----                                     ----
             STORAGE =     4141820.2500               STORAGE =        1113.1462
       CONSTANT HEAD =           0.0000         CONSTANT HEAD =           0.0000
      STREAM LEAKAGE =           0.0000        STREAM LEAKAGE =           0.0000
          FARM WELLS =       78522.2266            FARM WELLS =           0.0000
    FARM  NET  RECH. =           0.0000      FARM  NET  RECH. =           0.0000
     GHOST-NODE HEAD =     1971529.7500       GHOST-NODE HEAD =        3805.2737

           TOTAL OUT =     6191872.0000             TOTAL OUT =        4918.4199

            IN - OUT =           5.0000              IN - OUT =       3.9062E-03

 PERCENT DISCREPANCY =           0.00     PERCENT DISCREPANCY =           0.00






          TIME SUMMARY AT END OF TIME STEP     2 IN STRESS PERIOD     24
                    SECONDS     MINUTES      HOURS       DAYS        YEARS
                    -----------------------------------------------------------
   TIME STEP LENGTH 1.31414E+06  21902.      365.04      15.210     4.16427E-02
 STRESS PERIOD TIME 2.62829E+06  43805.      730.08      30.420     8.32854E-02
         TOTAL TIME 6.30789E+07 1.05132E+06  17522.      730.08      1.9989    
1
1
  FLUX ACROSS PARENT-CHILD INTERFACE AT TIME STEP  2 IN STRESS PERIOD   24
  ------------------------------------------------------------------------
 G-N FLUX        PARENT        CHILD         DIFFERENCE      % DIFFERENCE
  RATE IN:      2.5734E+03    2.5733E+03     1.4282E-01        0.0056
 RATE OUT:      3.8050E+03    3.8053E+03    -2.4585E-01       -0.0065

 Run end date and time (yyyy/mm/dd hh:mm:ss): 1998/06/15  3:37:11
 Elapsed run time: 10.499 Seconds

