
                       OWHM 1.0
    U.S. GEOLOGICAL SURVEY MODULAR FINITE-DIFFERENCE 
         ONE-WATER HYDROLOGIC-FLOW MODEL [OWHM]
              Version 1.0.0   11/05/2014

 INCLUDES:
          MODFLOW-2005 Version 1.11.0  08/08/2013
          FMP          Version 3.0.0   08/01/2014
          SWR          Version 1.03.0  09/24/2013
          SWI          Version 2.0.0   07/22/2013
          LGR          Version 2.0.0   09/19/2013
          NWT          Version 1.0.9   07/01/2014


 LIST FILE: ../../test-out-owhm-lgr/fmp-lgr-nwt/OWHM_EX2_child.lst
                         UNIT  711

 OPENING OWHM_EX2_child.upw
 FILE TYPE:UPW   UNIT  911   STATUS:OLD    
 FORMAT:FORMATTED              ACCESS:SEQUENTIAL          

 OPENING OWHM_EX2_child.ba6
 FILE TYPE:BAS6   UNIT 1011   STATUS:OLD    
 FORMAT:FORMATTED              ACCESS:SEQUENTIAL          

 OPENING OWHM_EX2_child.dis
 FILE TYPE:DIS   UNIT 1111   STATUS:OLD    
 FORMAT:FORMATTED              ACCESS:SEQUENTIAL          

 OPENING OWHM_EX2_child.fmp
 FILE TYPE:FMP   UNIT 1211   STATUS:OLD    
 FORMAT:FORMATTED              ACCESS:SEQUENTIAL          
#sfr           1411 OWHM_EX2_child.sfr --> can't leave this in there if no segments - will be turned off !                                                                                                                                                                                                                                                                                                                                                                                                                                                                                                                                                                                                                  

 OPENING OWHM_EX2_child.oc
 FILE TYPE:OC   UNIT 1911   STATUS:OLD    
 FORMAT:FORMATTED              ACCESS:SEQUENTIAL          
# Solvers                                                                                                                                                                                                                                                                                                                                                                                                                                                                                                                                                                                                                                                                                                                   

 OPENING OWHM_EX2.nwt
 FILE TYPE:NWT   UNIT 1811   STATUS:OLD    
 FORMAT:FORMATTED              ACCESS:SEQUENTIAL          
#                                                                                                                                                                                                                                                                                                                                                                                                                                                                                                                                                                                                                                                                                                                           

 OPENING ../../test-out-owhm-lgr/fmp-lgr-nwt/OWHM_EX2_child.hed
 FILE TYPE:DATA   UNIT 2211   STATUS:UNKNOWN
 FORMAT:FORMATTED              ACCESS:SEQUENTIAL          
#FMP Datafiles                                                                                                                                                                                                                                                                                                                                                                                                                                                                                                                                                                                                                                                                                                              

 OPENING ./DATA_FMP/OFE_Child.in
 FILE TYPE:DATA   UNIT 2011   STATUS:OLD    
 FORMAT:FORMATTED              ACCESS:SEQUENTIAL          

 OPENING ./DATA_FMP/ROOT_Child.in
 FILE TYPE:DATA   UNIT 3011   STATUS:OLD    
 FORMAT:FORMATTED              ACCESS:SEQUENTIAL          

 OPENING ./DATA_FMP/KC_Child.in
 FILE TYPE:DATA   UNIT 4011   STATUS:OLD    
 FORMAT:FORMATTED              ACCESS:SEQUENTIAL          

 OPENING ./DATA_FMP/FTE_Child.in
 FILE TYPE:DATA   UNIT 5011   STATUS:OLD    
 FORMAT:FORMATTED              ACCESS:SEQUENTIAL          

 OPENING ./DATA_FMP/INEFFSW_Child.in
 FILE TYPE:DATA   UNIT 6011   STATUS:OLD    
 FORMAT:FORMATTED              ACCESS:SEQUENTIAL          

 OPENING ./DATA_FMP/NRDFAC_Child.in
 FILE TYPE:DATA   UNIT 8011   STATUS:OLD    
 FORMAT:FORMATTED              ACCESS:SEQUENTIAL          
#                                                                                                                                                                                                                                                                                                                                                                                                                                                                                                                                                                                                                                                                                                                           

 OPENING ../../test-out-owhm-lgr/fmp-lgr-nwt/CBC_child.OUT
 FILE TYPE:DATA(BINARY)   UNIT 7011   STATUS:UNKNOWN
 FORMAT:UNFORMATTED            ACCESS:STREAM              

 OPENING ../../test-out-owhm-lgr/fmp-lgr-nwt/OWHM_EX2_child_bfh.hed
 FILE TYPE:DATA   UNIT 5911   STATUS:UNKNOWN
 FORMAT:FORMATTED              ACCESS:SEQUENTIAL          

 OPENING ../../test-out-owhm-lgr/fmp-lgr-nwt/OWHM_EX2_child_bfh.flw
 FILE TYPE:DATA   UNIT 6911   STATUS:UNKNOWN
 FORMAT:FORMATTED              ACCESS:SEQUENTIAL          

 BAS -- BASIC PACKAGE, VERSION 7, 5/2/2005 INPUT READ FROM UNIT 1011
 
 MODFLOW was compiled using mixed precision
 Precision of REAL variables:           6
 Precision of DOUBLE PRECISION variables:          15

 DISCRETIZATION INPUT DATA READ FROM UNIT 1111
 # generic model 1 transient discretization file

*** DIS COORDINATE SYSTEM NOT SEPECIFIED ***
DEFAULT VALUES APPLIED ARE 0° ROTATION
WITH THE ORIGIN (0,0) LOCATED AT THE MODEL'S LOWER LEFT CORNER


    4 LAYERS         9 ROWS         9 COLUMNS
     24 STRESS PERIOD(S) IN SIMULATION
 MODEL TIME UNIT IS DAYS
 MODEL LENGTH UNIT IS METERS
  Confining bed flag for each layer:
   1   1   1   0

                     DELR =   166.667    

                     DELC =   166.667    

 OPENING FILE ON UNIT   99:
 ./DATA_FMP/GSE_child.in                                                                                                                                                                                                                                                                                                                                                                                                                                                                                                                                                                                                                                                                                                     



           TOP ELEVATION OF LAYER 1
 READING ON UNIT   99 WITH FORMAT: (FREE)              

   MODEL LAYER BOTTOM EL. =   205.000     FOR LAYER   1

 BOT. EL. OF QUASI-3D BED =   200.000     FOR LAYER   1

   MODEL LAYER BOTTOM EL. =   140.000     FOR LAYER   2

 BOT. EL. OF QUASI-3D BED =   125.000     FOR LAYER   2

   MODEL LAYER BOTTOM EL. =   65.0000     FOR LAYER   3

 BOT. EL. OF QUASI-3D BED =   60.0000     FOR LAYER   3

   MODEL LAYER BOTTOM EL. =   0.00000     FOR LAYER   4


 STRESS PERIOD     LENGTH       TIME STEPS     MULTIPLIER FOR DELT    SS FLAG
 ----------------------------------------------------------------------------
        1         30.42000          2                    1.000         TR
        2         30.42000          2                    1.000         TR
        3         30.42000          2                    1.000         TR
        4         30.42000          2                    1.000         TR
        5         30.42000          2                    1.000         TR
        6         30.42000          2                    1.000         TR
        7         30.42000          2                    1.000         TR
        8         30.42000          2                    1.000         TR
        9         30.42000          2                    1.000         TR
       10         30.42000          2                    1.000         TR
       11         30.42000          2                    1.000         TR
       12         30.42000          2                    1.000         TR
       13         30.42000          2                    1.000         TR
       14         30.42000          2                    1.000         TR
       15         30.42000          2                    1.000         TR
       16         30.42000          2                    1.000         TR
       17         30.42000          2                    1.000         TR
       18         30.42000          2                    1.000         TR
       19         30.42000          2                    1.000         TR
       20         30.42000          2                    1.000         TR
       21         30.42000          2                    1.000         TR
       22         30.42000          2                    1.000         TR
       23         30.42000          2                    1.000         TR
       24         30.42000          2                    1.000         TR

 TRANSIENT SIMULATION



 
 # generic model 1                                                               
 THE FREE FORMAT OPTION HAS BEEN SELECTED

 THE MAX STORAGE FOR PROPERTIES DEFINED BY PARAMETERS IS: 
 MAX STORAGE OF PARAMETERS (MXPAR)  IS       2000
 MAX STORAGE OF INSTANCES  (MXINST) IS      50000
 MAX STORAGE OF CLUSTERS   (MXCLST) IS    2000000

 CALCULATE FLOW BETWEEN ADJACENT CONSTANT-HEAD CELLS

 OPENING FILE ON UNIT   99:
 OWHM_EX2_child.ib                                                                                                                                                                                                                                                                                                                                                                                                                                                                                                                                                                                                                                                                                                           



                     BOUNDARY ARRAY FOR LAYER   1
 READING ON UNIT   99 WITH FORMAT: (FREE)              

 OPENING FILE ON UNIT   99:
 OWHM_EX2_child.ib                                                                                                                                                                                                                                                                                                                                                                                                                                                                                                                                                                                                                                                                                                           



                     BOUNDARY ARRAY FOR LAYER   2
 READING ON UNIT   99 WITH FORMAT: (FREE)              

 OPENING FILE ON UNIT   99:
 OWHM_EX2_child.ib                                                                                                                                                                                                                                                                                                                                                                                                                                                                                                                                                                                                                                                                                                           



                     BOUNDARY ARRAY FOR LAYER   3
 READING ON UNIT   99 WITH FORMAT: (FREE)              

 OPENING FILE ON UNIT   99:
 OWHM_EX2_child.ib                                                                                                                                                                                                                                                                                                                                                                                                                                                                                                                                                                                                                                                                                                           



                     BOUNDARY ARRAY FOR LAYER   4
 READING ON UNIT   99 WITH FORMAT: (FREE)              

CHECKING FOR VALID MODEL DIMENIONS FOR DELR, DELC, AND THICKNESS


 AQUIFER HEAD WILL BE SET TO  -333.00     AT ALL NO-FLOW NODES (IBOUND=0).

             INITIAL HEAD =   0.00000     FOR LAYER   1

             INITIAL HEAD =   0.00000     FOR LAYER   2

             INITIAL HEAD =   0.00000     FOR LAYER   3

             INITIAL HEAD =   0.00000     FOR LAYER   4

 OUTPUT CONTROL IS SPECIFIED ONLY AT TIME STEPS FOR WHICH OUTPUT IS DESIRED
 HEADS WILL BE SAVED WITH FORMAT: (100F8.2)           
 SAVED HEADS WILL BE LABELED
 COMPACT CELL-BY-CELL BUDGET FILES WILL BE WRITTEN
 HEAD PRINT FORMAT CODE IS  -3    DRAWDOWN PRINT FORMAT CODE IS   0
 HEADS WILL BE SAVED ON UNIT 2211    DRAWDOWNS WILL BE SAVED ON UNIT    0  WATER BUDGETs WILL BE SAVED ON UNIT 

 LGR2 -- LOCAL GRID REFINEMENT, VERSION 2.0, 06/25/2013
        INPUT READ FOR MODEL  2 DEFINED BY NAME FILE OWHM_EX2_child.nam

 LOCAL GRID REFINEMENT IS ACTIVE FOR CHILD ONLY
               STARTING HEADS FROM PARENT WILL BE USED: ISHFLG =   1
               VALUE IN IBOUND INDICATING BOUNDARY INTERFACE = 4911
               BOUNDARY HEADS WILL BE SAVED ON UNIT  5911
               BOUNDARY FLUXES WILL BE SAVED ON UNIT  6911
               MAX NUMBER OF LGR ITERATIONS = 30
               LGR ITERATION RESULTS WRITTEN TO SCREEN: IOUTLGR =  -1

               WEIGHTING FACTORS FOR RELAXATION
               RELAXH(HEAD) RELAXF(FLUX)
               -------------------------
               0.500E+00      0.500E+00

               CLOSURE CRITERIA FOR LGR ITERATIONS
               HCLOSELGR       FCLOSELGR
               -------------------------
               5.000E-04      1.000E+00

               STARTING LAYER, ROW, COLUMN=   1,   6,   7
               ENDING LAYER, ROW, COLUMN=     4,   8,   9
               NCPP: NUMBER OF CHILD CELLS PER WIDTH OF PARENT CELL= 3
               NCPPL: NUMBER OF CHILD LAYERS IN LAYER  1 OF PARENT = 1
               NCPPL: NUMBER OF CHILD LAYERS IN LAYER  2 OF PARENT = 1
               NCPPL: NUMBER OF CHILD LAYERS IN LAYER  3 OF PARENT = 1
               NCPPL: NUMBER OF CHILD LAYERS IN LAYER  4 OF PARENT = 1
 # NWT: Newton Solver file created on 3/20/2013 by ModelMuse version 2.18.1.0.

 NWT1 -- Newton Solver, VERSION 1.0.9, 07/01/2014
         INPUT READ FROM UNIT 1811

 COMPLEX OPTION:
 DEFAULT SOLVER INPUT VALUES REFLECT STRONGLY NONLINEAR MODEL
 ***GMRES linear solver will be used***
 
   CONVERGENCE CRITERION OF   0.100000E-03 FOR HEAD SOLUTION
   AND A TOLERANCE OF   0.500000E+03 FOR FLOW SOLUTION AND 
   A MAXIMUM OF   100 OUTER ITERATIONS. 


   D-B-D REDUCTION FACTOR OF    0.850000E+00 AND 
   A D-B-D INCREASE FACTOR OF    0.100000E-04 AND 
   A D-B-D RELAXATION OF    0.000000E+00 AND 
   A MOMENTUM FACTOR OF    0.100000E+00 .


   BACKTRACKING IS ACTIVE 
   THE MAXIMUM NUMBER OF BACKTRACKS IS    50 AND 
   THE BACKTRACKING TOLERANCE IS    0.110000E+01 AND
   THE BACKTRACKING REDUCTION FACTOR IS    0.700000E+00

 GMRES -- LINEAR SOLUTION BY GMRES PACKAGE 
     UNIT:  1811
     adapted for HYDROTHERM by Kipp and others (2008)
     using software originally developed by Saad (1990)
     using algorithms described in Saad (2003)

 UPW1 -- UPSTREAM WEIGHTING FLOW PACKAGE, VERSION 1.0.6, 12/05/2012
         INPUT READ FROM UNIT911

 CELL-BY-CELL FLOWS WILL BE SAVED ON UNIT 7011
 No named parameters

   LAYER FLAGS:
 LAYER       LAYTYP          LAYAVG    CHANI           LAYVKA           LAYWET
 ---------------------------------------------------------------------------
    1             1             0     1.000E+00             1             0
    2             0             0     1.000E+00             1             0
    3             0             0     1.000E+00             1             0
    4             0             0     1.000E+00             1             0

   INTERPRETATION OF LAYER FLAGS:
                        INTERBLOCK     HORIZONTAL    DATA IN
         LAYER TYPE   TRANSMISSIVITY   ANISOTROPY   ARRAY VKA   WETTABILITY
 LAYER   (LAYTYP)        (LAYAVG)      (CHANI)     (LAYVKA)       (LAYWET)
 ---------------------------------------------------------------------------
    1   CONVERTIBLE      HARMONIC     1.000E+00    ANISOTROPY  NON-WETTABLE
    2      CONFINED      HARMONIC     1.000E+00    ANISOTROPY  NON-WETTABLE
    3      CONFINED      HARMONIC     1.000E+00    ANISOTROPY  NON-WETTABLE
    4      CONFINED      HARMONIC     1.000E+00    ANISOTROPY  NON-WETTABLE

    HYD. COND. ALONG ROWS =   10.0000     FOR LAYER   1

  HORIZ. TO VERTICAL ANI. =   1.00000     FOR LAYER   1

         SPECIFIC STORAGE =  1.000000E-05 FOR LAYER   1

           SPECIFIC YIELD =  2.000000E-02 FOR LAYER   1

 QUASI3D VERT. HYD. COND. =  2.000000E-03 FOR LAYER   1

    HYD. COND. ALONG ROWS =   1.50000     FOR LAYER   2

  HORIZ. TO VERTICAL ANI. =   1.00000     FOR LAYER   2

         SPECIFIC STORAGE =  1.000000E-05 FOR LAYER   2

 QUASI3D VERT. HYD. COND. =  1.000000E-03 FOR LAYER   2

    HYD. COND. ALONG ROWS =   1.00000     FOR LAYER   3

  HORIZ. TO VERTICAL ANI. =   1.00000     FOR LAYER   3

         SPECIFIC STORAGE =  1.000000E-05 FOR LAYER   3

 QUASI3D VERT. HYD. COND. =  5.000000E-04 FOR LAYER   3

    HYD. COND. ALONG ROWS =  0.150000     FOR LAYER   4

  HORIZ. TO VERTICAL ANI. =   1.00000     FOR LAYER   4

         SPECIFIC STORAGE =  1.000000E-05 FOR LAYER   4


 FMP3 -- FARM PROCESS, VERSION 3.0, 06/15/1998 03:37:00
 INPUT READ FROM UNIT
 # FMP2 Example Model -- ZERO SCENARIO / EQUAL APPROPRATION
               2 Named Parameters     
               1 Child Model Well List entries
              15 Parent Model Well List entries used at Maximum for Child Model Wells

 DIMENSIONS:
   MAXIMUM OF     32 FARM WELLS
   MAXIMUM OF        8 FARMS
   TOTAL OF        3 SOIL-TYPES
   TOTAL OF        6 CROP-TYPES

 WHEN TO READ SETTINGS:
   ROOT ZONE DEPTHS ............................  SPECIFIED FOR EACH STRESS PERIOD
                                                  IN PARENT MODEL AND USED IN CHILD MODEL WHERE NEEDED

   CROP COEFFICIENTS ...........................  AND
   REFERENCE EVAPOTRANSPIRATION FLUX ...........  SPECIFIED FOR EACH STRESS PERIOD
                                                  IN PARENT MODEL AND USED IN CHILD MODEL WHERE NEEDED

   PRECIPITATION FLUX ..........................  SPECIFIED FOR EACH STRESS PERIOD
                                                  IN PARENT MODEL AND USED IN CHILD MODEL WHERE NEEDED

   FRACTIONS OF TRANS. & EVAP. OF CONSUMPTIVE USE SPECIFIED FOR EACH STRESS PERIOD
                                                  IN PARENT MODEL AND USED IN CHILD MODEL WHERE NEEDED

   FRACTIONS OF IN-EFFICIENT LOSSES TO SW-RUNOFF  SPECIFIED FOR EACH STRESS PERIOD
                                                  IN PARENT MODEL AND USED IN CHILD MODEL WHERE NEEDED

   ON-FARM EFFICIENCIES ........................  SPECIFIED FOR EACH STRESS PERIOD
                                                  IN PARENT MODEL AND USED IN CHILD MODEL WHERE NEEDED

   WATER-BALANCE SUBREGIONS (FARMS).............  SPECIFIED FOR THE ENTIRE SIMULATION

 WATER POLICY SETTINGS:
   EFFICIENCY BEHAVIOR: CONSERVATIVE BEHAVIOR: CONSTANT EFFICIENCY OVER A TIME STEP
                        EFFICIENCY DOES NOT VARY WITH CHANGING GROUNDWATER LEVEL, BUT
                        DELIVERY MAY VARY WITH CHANGING GROUNDWATER LEVEL
                        EFF. RESET TO SPEC. EFF. AT BEG. OF EACH TIME STEP
   NO DEFICIENCY SCENARIO APPLIED (ZERO SCENARIO)
     ASSUMPTION FOR DEFICIENCY CASE: SUPPLY = DEMAND, I.E.
     SUPPLY SUFFICIENTLY SUPPLEMENTED FROM OUTSIDE MODELING DOMAIN
   NO NON-IRRIGATION-SEASON HAS BEEN SELECTED
   NO GROUNDWATER ALLOTMENTS (Volumetric Rate) HAVE BEEN SELECTED -- Maximum Groundwater Delivery limited by Total Capacity of all Farm wells per Farm per Stress Period

 SURFACE-WATER SETTINGS (SUPPLY / RETURNFLOW / RIGHTS:
   FARM DELIVERY REQUIREMENT SUPPLIED BY:
     NON-ROUTED SURFACE-WATER DELIVERIES (FIRST PRIORITY).
     MAXIMUM NUMBER OF NON-ROUTED DELIVERY TYPES =    1
   NO ROUTED SURFACE-WATER DELIVERY EXISTS
     TO ALL REACHES OF ANY STREAM SEGMENT LOCATED WITHIN EACH FARM

 PRINT SETTINGS:
   FARM WELL FLOW RATES:
     A LIST (FARM-WELL ID, FARM ID, LAY, ROW, COL, RATE) IS SAVED 
     ON ASCII FILE "FWELLS.OUT" FOR ALL TIME STEPS
   FARM NET RECHARGE FLOW RATES:
     A 2D INTEGER-ARRAY OF EACH CELLS UPPERMOST ACTIVE LAYER, AND
     A 2D REAL-ARRAY OF EACH CELLS NET RECHARGE RATE 
     WILL BE SAVED AS BINARY FILE ON UNIT 7011 FOR TIME STEPS, FOR WHICH IN OUTPUT CONTOL
     "SAVE BUDGET" IS SPECIFIED (USING WORDS), OR ICBCFL IS NOT 0 (USING NUMERIC CODES)
   FARM DEMAND & SUPPLY FLOW RATES:
     A LIST OF INITIAL DEMAND & SUPPLY FLOW RATES, AND OF
     FINAL DEMAND AND SUPPLY FLOW RATES AFTER THE APPLICATION OF A DEFICIENCY SCENARIO
     WILL BE SAVED ON ASCII-FILE "FDS.OUT" FOR ALL TIME STEPS.  LIST =
     (PER,TSTP,TIME,FID,OFE,
      TFDR-INI,NR-SWD-INI,R-SWD-INI,QREQ,TFDR-FIN,NR-SWD-FIN,R-SWD-FIN,QREQ,Q,DEF-FLAG)
     (<-- BEFORE DEFICIENCY SCENARIO --> <--       AFTER DEFICIENCY SCENARIO       -->)
   DETAILED FARM BUDGET:
     A LIST OF VOLUMETRIC FLOW RATES FOR ANY TIME STEP [L^3/T], AND OF CUMULATIVE VOLUMES [L^3] 
     WILL BE SAVED ON ASCII-FILE "FB_DETAILS.OUT" FOR ALL TIME STEPS.
      LIST = (PER,TSTP,TIME,FID;
      RATES INTO FARM: Q-p-in, Q-nrd-in, Q-srd-in, Q-rd-in, Q-wells-in, Q-egw-in, Q-tgw-in, Q-ext-in, Q-tot-in,
      RATES OUT OF FARM: Q-ei-out, Q-ep-out, Q-egw-out, Q-ti-out, Q-tp-out, Q-tgw-out Q-run-out, Q-dp-out, Q-nrd-out, Q-srd-out, Q-rd-out, Q-wells-out, Q-tot-out,
      RATE BUDGET ERROR: Q-in-minus-out, Q-Discrepancy [%];
      CUMULATIVE VOLUMES INTO FARM: V-p-in, V-nrd-in, V-srd-in, V-rd-in, V-wells-in, V-egw-in, V-tgw-in, V-ext-in, V-tot-in,
      CUMULATIVE VOLUMES OUT OF FARM: V-ei-out, V-ep-out, V-egw-out, V-ti-out, V-tp-out, V-tgw-out V-run-out, V-dp-out, V-nrd-out, V-srd-out, V-rd-out, V-wells-out, V-tot-out,
      VOLUMETRIC BUDGET ERROR: Q-in-minus-out, Q-Discrepancy [%])
   ROUTING INFOMATION:
     WRITTEN TO ASCII FILE "ROUT.OUT" FOR FIRST STRESS PERIOD ONLY
 
 AUXILIARY FARM WELL PARAMETER: QMAXRESET       
 AUXILIARY FARM WELL PARAMETER: LGRGRID         


     2 Farm Well parameters

 PARAMETER NAME:WELLSC       TYPE:QMAX
 Parameter value from package file is:    1000.0    
   NUMBER OF ENTRIES:      1

 OPENING FILE ON UNIT   99:
 ./DATA_FMP/WELLS_child.in                                                                                                                                                                                                                                                                                                                                                                                                                                                                                                                                                                                                                                                                                                   
  PHIRAMP WILL BE SET TO A DEFAULT VALUE OF 0.05
  WELLS WITH REDUCED PUMPING WILL BE REPORTED TO THE MAIN LISTING FILE

 WELL NO. LAYER    ROW    COL  F-WELL ID    FARM ID      QMAXfac         QMAXRESET       LGRGRID         
 --------------------------------------------------------------------------------------------------------
       1      1      2      8          2          2      2.0000E+00              0              0

 PARAMETER NAME:WELLS1       TYPE:QMAX
 Parameter value from package file is:    1000.0    
   NUMBER OF ENTRIES:      0
 
 WELL NO. LAYER    ROW    COL  F-WELL ID    FARM ID      QMAXfac         QMAXRESET       LGRGRID         
 --------------------------------------------------------------------------------------------------------
       2      1      8      2          2          1      5.0000E+00     0    0
       3      1      8      8          3          1      5.0000E+00     0    0
1
                            STRESS PERIOD NO.      1, LENGTH =   30.42000    
                            -----------------------------------------------

                              NUMBER OF TIME STEPS =     2

                               MULTIPLIER FOR DELT =     1.000

                            INITIAL TIME STEP SIZE =   15.21000    

PARAMETERS HAVE BEEN USED IN PACKAGES
THE CURRENT STORAGE FOR PARAMETERS IS: 
# PARAMETER=         2 WITH MAX STORAGE (MXPAR)  OF      2000
# INSTANCES=         0 WITH MAX STORAGE (MXINST) OF     50000
# CLUSTERS =         0 WITH MAX STORAGE (MXCLST) OF   2000000
YOU CAN INCREASE/DECREASE STORAGE WITH BAS OPTION:
MAXPARAM  MXPAR  MXCLST MXINST

 OPENING FILE ON UNIT   99:
 ./DATA_FMP/WELLS_child.in                                                                                                                                                                                                                                                                                                                                                                                                                                                                                                                                                                                                                                                                                                   
  PHIRAMP WILL BE SET TO A DEFAULT VALUE OF 0.05
  WELLS WITH REDUCED PUMPING WILL BE REPORTED TO THE MAIN LISTING FILE

 WELL NO. LAYER    ROW    COL  F-WELL ID    FARM ID         QMAX         QMAXRESET       LGRGRID         
 --------------------------------------------------------------------------------------------------------
       1      1      2      8          2          2      2.0000E+00              0              0
       2      1      8      2          2          1      5.0000E+00     0    0
       3      1      8      8          3          1      5.0000E+00     0    0

 Parameter:  WELLSC
 WELL NO. LAYER    ROW    COL  F-WELL ID    FARM ID         QMAX         QMAXRESET       LGRGRID         
 --------------------------------------------------------------------------------------------------------
       4      1      2      8          2          2      2.0000E+03              0              0

 Parameter:  WELLS1
 WELL NO. LAYER    ROW    COL  F-WELL ID    FARM ID         QMAX         QMAXRESET       LGRGRID         
 --------------------------------------------------------------------------------------------------------
       5      1      8      2          2          1      5.0000E+03              0              0
       6      1      8      8          3          1      5.0000E+03              0              0

 NUMBER OF ACTIVE FARM WELLS:        6

 FARM-ID  NUMBER OF WELLS PER FARM  TOTAL MAX.CAPACITY PER FARM
       1                         4                   10010.0000
       2                         2                    2002.0000
       3                         0                       0.0000
       4                         0                       0.0000
       5                         0                       0.0000
       6                         0                       0.0000
       7                         0                       0.0000
       8                         0                       0.0000

Transpiratory and Evaporative Fractions of Crop Consumptive Use
    % Transpiration % Evap. for Precip. % Evap. for Irrig.
    2          0.822          0.178          0.158
    3          0.957          0.043          0.043

FRACTIONS OF IN-EFFICIENT LOSSES TO SW-RUNOFF FROM 
     PRECIPITATION:  IRRIGATION:
    2          0.400          0.300
    3          0.600          0.500
 
 SOLVING FOR HEAD 
                                                   Max.-Head-Change                        Max.-Flux-Residual
  Residual-Control   Outer-Iter.   Inner-Iter.     Column Row Layer    Max.-Head-Change    Column Row Layer    Max.-Flux-Residual            L2-New               L2-Old           Solver-Max-Delh
          0                 1          11             9    5     1      -0.3387372749E+02       6    9    1      -0.3841554876E+04      0.2753697781E+05      0.0000000000E+00     -0.3387372749E+02
          0                 2          10             9    5     1      -0.3970915909E+01       7    9    1       0.1027058487E+04      0.4502448077E+04      0.2753697781E+05     -0.3970915909E+01
          0                 3           8             9    5     1       0.2936598419E+00       5    2    1      -0.9653364264E+02      0.3780403883E+03      0.4502448077E+04      0.2936598419E+00
          0                 4           7             9    5     1       0.1676750175E-01       5    9    1       0.5172244213E+01      0.2436014257E+02      0.3780403883E+03      0.1676750175E-01
          0                 5           5             9    5     1       0.1109223578E-02       5    9    1       0.4702589523E+00      0.1937639199E+01      0.2436014257E+02      0.1109223578E-02
          0                 6           4             9    6     1       0.8275042366E-04       5    1    1       0.4422636592E-01      0.1789620138E+00      0.1937639199E+01      0.8275042366E-04

    ------------------------------------------------
       NWT REQUIRED            6 OUTER ITERATIONS 
       AND A TOTAL OF         45 INNER ITERATIONS.
    ------------------------------------------------
                                                   Max.-Head-Change                        Max.-Flux-Residual
  Residual-Control   Outer-Iter.   Inner-Iter.     Column Row Layer    Max.-Head-Change    Column Row Layer    Max.-Flux-Residual            L2-New               L2-Old           Solver-Max-Delh
          0                 1          11             9    9     1      -0.2431212783E+02       9    9    1      -0.8509170828E+04      0.2828316742E+05      0.1789620138E+00     -0.2431212783E+02
          0                 2           9             9    9     2       0.1218876332E+01       1    9    1       0.5375610292E+03      0.1282375115E+04      0.2828316742E+05      0.1218876332E+01
          0                 3           8             9    9     2       0.6748960179E-01       1    9    1       0.4478296814E+02      0.1255744697E+03      0.1282375115E+04      0.6748960179E-01
          0                 4           7             9    1     1       0.6414475817E-02       1    9    1       0.3812719244E+01      0.1263064721E+02      0.1255744697E+03      0.6414475817E-02
          0                 5           5             9    1     1       0.6892448559E-03       1    9    1       0.3408473528E+00      0.1272659088E+01      0.1263064721E+02      0.6892448559E-03
          0                 6           3             9    1     1       0.7691977361E-04       9    1    1       0.3941155571E-01      0.1354408604E+00      0.1272659088E+01      0.7691977361E-04

    ------------------------------------------------
       NWT REQUIRED            6 OUTER ITERATIONS 
       AND A TOTAL OF         43 INNER ITERATIONS.
    ------------------------------------------------
                                                   Max.-Head-Change                        Max.-Flux-Residual
  Residual-Control   Outer-Iter.   Inner-Iter.     Column Row Layer    Max.-Head-Change    Column Row Layer    Max.-Flux-Residual            L2-New               L2-Old           Solver-Max-Delh
          0                 1          10             8    1     2      -0.3688527659E+01       1    1    1      -0.2343315774E+04      0.6001632332E+04      0.1354408604E+00     -0.3688527659E+01
          0                 2           8             9    9     2       0.2693527221E+00       1    1    1       0.1452883911E+03      0.2845866574E+03      0.6001632332E+04      0.2693527221E+00
          0                 3           7             8    1     2       0.1498000896E-01       1    1    1       0.1125290010E+02      0.2571527835E+02      0.2845866574E+03      0.1498000896E-01
          0                 4           5             3    1     1       0.1111069221E-02       1    1    1       0.9064881634E+00      0.2475013287E+01      0.2571527835E+02      0.1111069221E-02
          0                 5           4             8    1     1       0.1163256272E-03       1    1    1       0.7602502534E-01      0.2476031411E+00      0.2475013287E+01      0.1163256272E-03
          0                 6           3             3    9     1       0.1743768614E-04       6    9    1       0.1061102538E-01      0.3476214572E-01      0.2476031411E+00      0.1743768614E-04

    ------------------------------------------------
       NWT REQUIRED            6 OUTER ITERATIONS 
       AND A TOTAL OF         37 INNER ITERATIONS.
    ------------------------------------------------
                                                   Max.-Head-Change                        Max.-Flux-Residual
  Residual-Control   Outer-Iter.   Inner-Iter.     Column Row Layer    Max.-Head-Change    Column Row Layer    Max.-Flux-Residual            L2-New               L2-Old           Solver-Max-Delh
          0                 1           9             9    9     1       0.1658992389E+01       1    1    1      -0.7875653948E+03      0.2094870830E+04      0.3476214572E-01      0.1658992389E+01
          0                 2           8             1    1     2       0.9138077013E-01       1    1    1       0.5014473912E+02      0.1194275880E+03      0.2094870830E+04      0.9138077013E-01
          0                 3           6             9    9     1      -0.7369220000E-02       8    9    1      -0.3995603562E+01      0.1028713285E+02      0.1194275880E+03     -0.7369220000E-02
          0                 4           5             9    9     1      -0.6977216678E-03       9    9    1      -0.3835651330E+00      0.9217101285E+00      0.1028713285E+02     -0.6977216678E-03
          0                 5           3             9    9     1      -0.5952573984E-04       1    1    1       0.3405321017E-01      0.8938542057E-01      0.9217101285E+00     -0.5952573984E-04

    ------------------------------------------------
       NWT REQUIRED            5 OUTER ITERATIONS 
       AND A TOTAL OF         31 INNER ITERATIONS.
    ------------------------------------------------
                                                   Max.-Head-Change                        Max.-Flux-Residual
  Residual-Control   Outer-Iter.   Inner-Iter.     Column Row Layer    Max.-Head-Change    Column Row Layer    Max.-Flux-Residual            L2-New               L2-Old           Solver-Max-Delh
          0                 1           9             9    9     1       0.1585410919E+01       9    9    1       0.6534692673E+03      0.1283392993E+04      0.8938542057E-01      0.1585410919E+01
          0                 2           7             9    9     2      -0.8399778768E-01       7    9    1      -0.4127814093E+02      0.6909405524E+02      0.1283392993E+04     -0.8399778768E-01
          0                 3           5             9    9     1      -0.6273506203E-02       7    9    1      -0.3275055677E+01      0.6422914808E+01      0.6909405524E+02     -0.6273506203E-02
          0                 4           4             9    9     1      -0.6225044959E-03       9    9    1      -0.3168798411E+00      0.5883322101E+00      0.6422914808E+01     -0.6225044959E-03
          0                 5           3             9    9     1      -0.6202516259E-04       9    9    1      -0.3418758695E-01      0.5815949387E-01      0.5883322101E+00     -0.6202516259E-04

    ------------------------------------------------
       NWT REQUIRED            5 OUTER ITERATIONS 
       AND A TOTAL OF         28 INNER ITERATIONS.
    ------------------------------------------------
                                                   Max.-Head-Change                        Max.-Flux-Residual
  Residual-Control   Outer-Iter.   Inner-Iter.     Column Row Layer    Max.-Head-Change    Column Row Layer    Max.-Flux-Residual            L2-New               L2-Old           Solver-Max-Delh
          0                 1           8             9    9     1       0.8005143335E+00       8    9    1       0.3232821792E+03      0.7317884957E+03      0.5815949387E-01      0.8005143335E+00
          0                 2           7             9    9     2      -0.4916080330E-01       7    9    1      -0.1832275454E+02      0.3223985246E+02      0.7317884957E+03     -0.4916080330E-01
          0                 3           5             9    9     1      -0.2885847163E-02       7    9    1      -0.1499086327E+01      0.3016079788E+01      0.3223985246E+02     -0.2885847163E-02
          0                 4           4             9    9     1      -0.2948416698E-03       9    9    1      -0.1427981382E+00      0.3029711075E+00      0.3016079788E+01     -0.2948416698E-03
          0                 5           2             9    9     1      -0.3578205372E-04       9    9    1      -0.1930472013E-01      0.3463107982E-01      0.3029711075E+00     -0.3578205372E-04

    ------------------------------------------------
       NWT REQUIRED            5 OUTER ITERATIONS 
       AND A TOTAL OF         26 INNER ITERATIONS.
    ------------------------------------------------
                                                   Max.-Head-Change                        Max.-Flux-Residual
  Residual-Control   Outer-Iter.   Inner-Iter.     Column Row Layer    Max.-Head-Change    Column Row Layer    Max.-Flux-Residual            L2-New               L2-Old           Solver-Max-Delh
          0                 1           8             9    9     1       0.2444762169E+00       8    1    1       0.1012166671E+03      0.3678248089E+03      0.3463107982E-01      0.2444762169E+00
          0                 2           7             9    9     2      -0.1646839033E-01       1    1    1      -0.5302280175E+01      0.1482542141E+02      0.3678248089E+03     -0.1646839033E-01
          0                 3           5             9    9     2      -0.9482646043E-03       1    1    1      -0.4206282701E+00      0.1431841350E+01      0.1482542141E+02     -0.9482646043E-03
          0                 4           3             9    1     1      -0.8652925052E-04       7    1    1      -0.4349946178E-01      0.1478794079E+00      0.1431841350E+01     -0.8652925052E-04

    ------------------------------------------------
       NWT REQUIRED            4 OUTER ITERATIONS 
       AND A TOTAL OF         23 INNER ITERATIONS.
    ------------------------------------------------
                                                   Max.-Head-Change                        Max.-Flux-Residual
  Residual-Control   Outer-Iter.   Inner-Iter.     Column Row Layer    Max.-Head-Change    Column Row Layer    Max.-Flux-Residual            L2-New               L2-Old           Solver-Max-Delh
          0                 1           8             9    1     1       0.1328306702E+00       1    1    1       0.6749584165E+02      0.1997158716E+03      0.1478794079E+00      0.1328306702E+00
          0                 2           6             8    1     2      -0.9144621541E-02       1    1    1      -0.4173556532E+01      0.8886752486E+01      0.1997158716E+03     -0.9144621541E-02
          0                 3           5             8    1     2      -0.5221347832E-03       1    1    1      -0.3216935283E+00      0.8292331543E+00      0.8886752486E+01     -0.5221347832E-03
          0                 4           3             7    1     1      -0.4575113323E-04       7    1    1      -0.2699434524E-01      0.8503269196E-01      0.8292331543E+00     -0.4575113323E-04

    ------------------------------------------------
       NWT REQUIRED            4 OUTER ITERATIONS 
       AND A TOTAL OF         22 INNER ITERATIONS.
    ------------------------------------------------
                                                   Max.-Head-Change                        Max.-Flux-Residual
  Residual-Control   Outer-Iter.   Inner-Iter.     Column Row Layer    Max.-Head-Change    Column Row Layer    Max.-Flux-Residual            L2-New               L2-Old           Solver-Max-Delh
          0                 1           8             8    1     2       0.6622047317E-01       1    1    1       0.3979915837E+02      0.1088232788E+03      0.8503269196E-01      0.6622047317E-01
          0                 2           6             8    1     2      -0.4769754236E-02       1    1    1      -0.2504359613E+01      0.5312366003E+01      0.1088232788E+03     -0.4769754236E-02
          0                 3           4             8    1     2      -0.2644829490E-03       1    1    1      -0.1979866568E+00      0.4819771277E+00      0.5312366003E+01     -0.2644829490E-03
          0                 4           3             7    1     1      -0.2458885211E-04       7    1    1      -0.1276470977E-01      0.4656944765E-01      0.4819771277E+00     -0.2458885211E-04

    ------------------------------------------------
       NWT REQUIRED            4 OUTER ITERATIONS 
       AND A TOTAL OF         21 INNER ITERATIONS.
    ------------------------------------------------
                                                   Max.-Head-Change                        Max.-Flux-Residual
  Residual-Control   Outer-Iter.   Inner-Iter.     Column Row Layer    Max.-Head-Change    Column Row Layer    Max.-Flux-Residual            L2-New               L2-Old           Solver-Max-Delh
          0                 1           7             1    4     2       0.2901536501E-01       1    1    1       0.1977400142E+02      0.5124783409E+02      0.4656944765E-01      0.2901536501E-01
          0                 2           5             1    4     2      -0.2179846630E-02       1    1    1      -0.1271538489E+01      0.2650651694E+01      0.5124783409E+02     -0.2179846630E-02
          0                 3           4             1    4     2      -0.1223820321E-03       1    1    1      -0.9599920700E-01      0.2333237342E+00      0.2650651694E+01     -0.1223820321E-03
          0                 4           2             1    6     1      -0.1384498959E-04       8    9    1       0.1159573757E-01      0.3023391918E-01      0.2333237342E+00     -0.1384498959E-04

    ------------------------------------------------
       NWT REQUIRED            4 OUTER ITERATIONS 
       AND A TOTAL OF         18 INNER ITERATIONS.
    ------------------------------------------------
                                                   Max.-Head-Change                        Max.-Flux-Residual
  Residual-Control   Outer-Iter.   Inner-Iter.     Column Row Layer    Max.-Head-Change    Column Row Layer    Max.-Flux-Residual            L2-New               L2-Old           Solver-Max-Delh
          0                 1           7             1    5     2       0.1324654031E-01       1    1    1       0.8388089689E+01      0.2019527579E+02      0.3023391918E-01      0.1324654031E-01
          0                 2           5             1    5     2      -0.1012401592E-02       1    1    1      -0.5414043841E+00      0.1109411688E+01      0.2019527579E+02     -0.1012401592E-02
          0                 3           3             1    5     2      -0.5627059076E-04       1    1    1      -0.3909590677E-01      0.9176127390E-01      0.1109411688E+01     -0.5627059076E-04

    ------------------------------------------------
       NWT REQUIRED            3 OUTER ITERATIONS 
       AND A TOTAL OF         15 INNER ITERATIONS.
    ------------------------------------------------
                                                   Max.-Head-Change                        Max.-Flux-Residual
  Residual-Control   Outer-Iter.   Inner-Iter.     Column Row Layer    Max.-Head-Change    Column Row Layer    Max.-Flux-Residual            L2-New               L2-Old           Solver-Max-Delh
          0                 1           6             9    9     3       0.7211718636E-02       1    9    1       0.3658971618E+01      0.7597074249E+01      0.9176127390E-01      0.7211718636E-02
          0                 2           4             9    9     3      -0.6122088020E-03       1    9    1      -0.2295587124E+00      0.4319840326E+00      0.7597074249E+01     -0.6122088020E-03
          0                 3           3             9    9     3      -0.3255778073E-04       1    9    1      -0.1924424805E-01      0.4244824830E-01      0.4319840326E+00     -0.3255778073E-04

    ------------------------------------------------
       NWT REQUIRED            3 OUTER ITERATIONS 
       AND A TOTAL OF         13 INNER ITERATIONS.
    ------------------------------------------------
                                                   Max.-Head-Change                        Max.-Flux-Residual
  Residual-Control   Outer-Iter.   Inner-Iter.     Column Row Layer    Max.-Head-Change    Column Row Layer    Max.-Flux-Residual            L2-New               L2-Old           Solver-Max-Delh
          0                 1           6             9    9     3       0.3567522148E-02       1    9    1       0.1461298578E+01      0.3641374622E+01      0.4244824830E-01      0.3567522148E-02
          0                 2           4             9    9     3      -0.3034286495E-03       1    9    1      -0.9258698893E-01      0.2025195081E+00      0.3641374622E+01     -0.3034286495E-03
          0                 3           2             9    9     3      -0.1458451075E-04       2    9    1      -0.1010451640E-01      0.1989308762E-01      0.2025195081E+00     -0.1458451075E-04

    ------------------------------------------------
       NWT REQUIRED            3 OUTER ITERATIONS 
       AND A TOTAL OF         12 INNER ITERATIONS.
    ------------------------------------------------
                                                   Max.-Head-Change                        Max.-Flux-Residual
  Residual-Control   Outer-Iter.   Inner-Iter.     Column Row Layer    Max.-Head-Change    Column Row Layer    Max.-Flux-Residual            L2-New               L2-Old           Solver-Max-Delh
          0                 1           5             9    9     2       0.1677070408E-02       7    1    1      -0.6388694545E+00      0.1919355932E+01      0.1989308762E-01      0.1677070408E-02
          0                 2           3             9    9     2      -0.1369885666E-03       4    1    1       0.3252597369E-01      0.1014882225E+00      0.1919355932E+01     -0.1369885666E-03
          0                 3           2             9    9     2      -0.8016442083E-05       5    9    1      -0.8337704756E-02      0.1005423744E-01      0.1014882225E+00     -0.8016442083E-05

    ------------------------------------------------
       NWT REQUIRED            3 OUTER ITERATIONS 
       AND A TOTAL OF         10 INNER ITERATIONS.
    ------------------------------------------------
                                                   Max.-Head-Change                        Max.-Flux-Residual
  Residual-Control   Outer-Iter.   Inner-Iter.     Column Row Layer    Max.-Head-Change    Column Row Layer    Max.-Flux-Residual            L2-New               L2-Old           Solver-Max-Delh
          0                 1           4             9    1     1      -0.7552627242E-03       9    1    1      -0.3458421415E+00      0.9473970799E+00      0.1005423744E-01     -0.7552627242E-03
          0                 2           2             8    1     2       0.4541894987E-04       4    1    1       0.2162810770E-01      0.4850000717E-01      0.9473970799E+00      0.4541894987E-04

    ------------------------------------------------
       NWT REQUIRED            2 OUTER ITERATIONS 
       AND A TOTAL OF          6 INNER ITERATIONS.
    ------------------------------------------------
                                                   Max.-Head-Change                        Max.-Flux-Residual
  Residual-Control   Outer-Iter.   Inner-Iter.     Column Row Layer    Max.-Head-Change    Column Row Layer    Max.-Flux-Residual            L2-New               L2-Old           Solver-Max-Delh
          0                 1           4             9    9     3      -0.5022872468E-03       7    1    1      -0.1555924384E+00      0.5167512893E+00      0.4850000717E-01     -0.5022872468E-03
          0                 2           3             9    9     3       0.3884924449E-04       1    1    1       0.1177139429E-01      0.3091152285E-01      0.5167512893E+00      0.3884924449E-04

    ------------------------------------------------
       NWT REQUIRED            2 OUTER ITERATIONS 
       AND A TOTAL OF          7 INNER ITERATIONS.
    ------------------------------------------------
                                                   Max.-Head-Change                        Max.-Flux-Residual
  Residual-Control   Outer-Iter.   Inner-Iter.     Column Row Layer    Max.-Head-Change    Column Row Layer    Max.-Flux-Residual            L2-New               L2-Old           Solver-Max-Delh
          0                 1           4             9    9     3      -0.3264489347E-03       1    9    1      -0.9029867477E-01      0.3036892510E+00      0.3091152285E-01     -0.3264489347E-03
          0                 2           2             9    9     3       0.2463895796E-04       5    9    1       0.7501907356E-02      0.2179356565E-01      0.3036892510E+00      0.2463895796E-04

    ------------------------------------------------
       NWT REQUIRED            2 OUTER ITERATIONS 
       AND A TOTAL OF          6 INNER ITERATIONS.
    ------------------------------------------------

 OUTPUT CONTROL FOR STRESS PERIOD      1   TIME STEP     1
    SAVE HEAD FOR ALL LAYERS
    SAVE BUDGET
 UBDSV1 SAVING "         STORAGE" ON UNIT7011 AT TIME STEP    1, STRESS PERIOD   1
 UBDSV2 SAVING "   CONSTANT HEAD" ON UNIT7011 AT TIME STEP    1, STRESS PERIOD   1
 UBDSV1 SAVING "FLOW RIGHT FACE " ON UNIT7011 AT TIME STEP    1, STRESS PERIOD   1
 UBDSV1 SAVING "FLOW FRONT FACE " ON UNIT7011 AT TIME STEP    1, STRESS PERIOD   1
 UBDSV1 SAVING "FLOW LOWER FACE " ON UNIT7011 AT TIME STEP    1, STRESS PERIOD   1
 
 
 
 
 
 
 
 
 UBDSV3 SAVING "FARM  NET  RECH." ON UNIT7011 AT TIME STEP    1, STRESS PERIOD   1
 UBDSV4 SAVING " GHOST-NODE HEAD" ON UNIT7011 AT TIME STEP    1, STRESS PERIOD   1

 HEAD WILL BE SAVED ON UNIT 2211 AT END OF TIME STEP     1, STRESS PERIOD      1
1
  FLUX ACROSS PARENT-CHILD INTERFACE AT TIME STEP  1 IN STRESS PERIOD    1
  ------------------------------------------------------------------------
 G-N FLUX        PARENT        CHILD         DIFFERENCE      % DIFFERENCE
  RATE IN:      1.2483E+05    1.2483E+05    -1.4844E-01       -0.0001
 RATE OUT:      0.0000E+00    0.0000E+00     0.0000E+00        0.0000
 
 SOLVING FOR HEAD 
                                                   Max.-Head-Change                        Max.-Flux-Residual
  Residual-Control   Outer-Iter.   Inner-Iter.     Column Row Layer    Max.-Head-Change    Column Row Layer    Max.-Flux-Residual            L2-New               L2-Old           Solver-Max-Delh
          0                 1          10             9    5     1       0.2150911348E+02       2    2    1       0.1977420108E+04      0.1144665348E+05      0.2179356565E-01      0.2150911348E+02
          0                 2          10             9    5     1      -0.3580555755E+01       7    5    1      -0.6443460508E+03      0.3045578852E+04      0.1144665348E+05     -0.3580555755E+01
          0                 3           8             9    5     1      -0.2710295060E+00       9    5    1      -0.6084135091E+02      0.2156124247E+03      0.3045578852E+04     -0.2710295060E+00
          0                 4           7             9    5     1      -0.1410545496E-01       9    5    1      -0.3276989213E+01      0.1158727489E+02      0.2156124247E+03     -0.1410545496E-01
          0                 5           4             9    5     1      -0.7098601610E-03       9    9    1       0.4438885412E+00      0.8428179640E+00      0.1158727489E+02     -0.7098601610E-03
          0                 6           3             9    9     1       0.6935908281E-04       9    9    1       0.7357317418E-01      0.1173769719E+00      0.8428179640E+00      0.6935908281E-04

    ------------------------------------------------
       NWT REQUIRED            6 OUTER ITERATIONS 
       AND A TOTAL OF         42 INNER ITERATIONS.
    ------------------------------------------------
                                                   Max.-Head-Change                        Max.-Flux-Residual
  Residual-Control   Outer-Iter.   Inner-Iter.     Column Row Layer    Max.-Head-Change    Column Row Layer    Max.-Flux-Residual            L2-New               L2-Old           Solver-Max-Delh
          0                 1           9             9    9     1       0.2535708642E+01       9    9    1       0.1027073641E+04      0.2634561439E+04      0.1173769719E+00      0.2535708642E+01
          0                 2           8             9    9     1      -0.2221524098E+00       9    9    1      -0.1152143026E+03      0.2635928892E+03      0.2634561439E+04     -0.2221524098E+00
          0                 3           7             9    9     1      -0.1233128304E-01       9    9    1      -0.6458747422E+01      0.1516595099E+02      0.2635928892E+03     -0.1233128304E-01
          0                 4           4             9    9     1      -0.6743763211E-03       9    9    1      -0.3522999217E+00      0.8707595383E+00      0.1516595099E+02     -0.6743763211E-03
          0                 5           3             9    9     1      -0.4816241382E-04       9    9    1      -0.2523433302E-01      0.5896893701E-01      0.8707595383E+00     -0.4816241382E-04

    ------------------------------------------------
       NWT REQUIRED            5 OUTER ITERATIONS 
       AND A TOTAL OF         31 INNER ITERATIONS.
    ------------------------------------------------
                                                   Max.-Head-Change                        Max.-Flux-Residual
  Residual-Control   Outer-Iter.   Inner-Iter.     Column Row Layer    Max.-Head-Change    Column Row Layer    Max.-Flux-Residual            L2-New               L2-Old           Solver-Max-Delh
          0                 1          10             9    9     1       0.3512734523E+01       9    9    1       0.1468963699E+04      0.4390071865E+04      0.5896893701E-01      0.3512734523E+01
          0                 2           8             9    9     1      -0.2933741285E+00       7    9    1      -0.1638530858E+03      0.4261097394E+03      0.4390071865E+04     -0.2933741285E+00
          0                 3           7             9    9     1      -0.1766168048E-01       9    9    1      -0.9694784674E+01      0.2581797171E+02      0.4261097394E+03     -0.1766168048E-01
          0                 4           5             9    9     1      -0.1047739681E-02       9    9    1      -0.5749714182E+00      0.1551453403E+01      0.2581797171E+02     -0.1047739681E-02
          0                 5           3             9    9     1      -0.7005375248E-04       9    9    1      -0.3899289215E-01      0.1022552401E+00      0.1551453403E+01     -0.7005375248E-04

    ------------------------------------------------
       NWT REQUIRED            5 OUTER ITERATIONS 
       AND A TOTAL OF         33 INNER ITERATIONS.
    ------------------------------------------------
                                                   Max.-Head-Change                        Max.-Flux-Residual
  Residual-Control   Outer-Iter.   Inner-Iter.     Column Row Layer    Max.-Head-Change    Column Row Layer    Max.-Flux-Residual            L2-New               L2-Old           Solver-Max-Delh
          0                 1           9             9    9     1       0.2166546869E+01       1    9    1       0.9489863553E+03      0.3201624800E+04      0.1022552401E+00      0.2166546869E+01
          0                 2           8             9    9     1      -0.1682756049E+00       7    9    1      -0.9246593095E+02      0.2892961530E+03      0.3201624800E+04     -0.1682756049E+00
          0                 3           7             9    9     1      -0.1047243531E-01       9    9    1      -0.5493669434E+01      0.1794367373E+02      0.2892961530E+03     -0.1047243531E-01
          0                 4           5             9    9     1      -0.6513606456E-03       9    9    1      -0.3480407357E+00      0.1112538304E+01      0.1794367373E+02     -0.6513606456E-03
          0                 5           3             8    9     1      -0.4350822566E-04       8    9    1      -0.2684128087E-01      0.7362813404E-01      0.1112538304E+01     -0.4350822566E-04

    ------------------------------------------------
       NWT REQUIRED            5 OUTER ITERATIONS 
       AND A TOTAL OF         32 INNER ITERATIONS.
    ------------------------------------------------
                                                   Max.-Head-Change                        Max.-Flux-Residual
  Residual-Control   Outer-Iter.   Inner-Iter.     Column Row Layer    Max.-Head-Change    Column Row Layer    Max.-Flux-Residual            L2-New               L2-Old           Solver-Max-Delh
          0                 1           9             9    9     1       0.8863173232E+00       1    1    1       0.5804638074E+03      0.1760043513E+04      0.7362813404E-01      0.8863173232E+00
          0                 2           8             8    1     2      -0.6572881099E-01       1    1    1      -0.5274566420E+02      0.1529224693E+03      0.1760043513E+04     -0.6572881099E-01
          0                 3           6             9    9     1      -0.4146845129E-02       1    1    1      -0.3069120397E+01      0.9574354103E+01      0.1529224693E+03     -0.4146845129E-02
          0                 4           4             9    9     1      -0.2587665750E-03       1    1    1      -0.1874240175E+00      0.5967843775E+00      0.9574354103E+01     -0.2587665750E-03
          0                 5           3             9    9     1      -0.2213643723E-04       1    1    1      -0.1421647542E-01      0.4692770586E-01      0.5967843775E+00     -0.2213643723E-04

    ------------------------------------------------
       NWT REQUIRED            5 OUTER ITERATIONS 
       AND A TOTAL OF         30 INNER ITERATIONS.
    ------------------------------------------------
                                                   Max.-Head-Change                        Max.-Flux-Residual
  Residual-Control   Outer-Iter.   Inner-Iter.     Column Row Layer    Max.-Head-Change    Column Row Layer    Max.-Flux-Residual            L2-New               L2-Old           Solver-Max-Delh
          0                 1           9             1    1     1       0.4185865188E+00       1    1    1       0.3203729971E+03      0.8413013893E+03      0.4692770586E-01      0.4185865188E+00
          0                 2           8             7    1     2      -0.3222442779E-01       1    1    1      -0.2906353470E+02      0.7242345715E+02      0.8413013893E+03     -0.3222442779E-01
          0                 3           6             1    1     1      -0.1919893019E-02       1    1    1      -0.1694217664E+01      0.4530822893E+01      0.7242345715E+02     -0.1919893019E-02
          0                 4           4             8    1     1      -0.1248573956E-03       1    9    1      -0.9366706247E-01      0.2796773807E+00      0.4530822893E+01     -0.1248573956E-03
          0                 5           3             9    9     1      -0.1449264506E-04       1    1    1      -0.1428060245E-01      0.3087524083E-01      0.2796773807E+00     -0.1449264506E-04

    ------------------------------------------------
       NWT REQUIRED            5 OUTER ITERATIONS 
       AND A TOTAL OF         30 INNER ITERATIONS.
    ------------------------------------------------
                                                   Max.-Head-Change                        Max.-Flux-Residual
  Residual-Control   Outer-Iter.   Inner-Iter.     Column Row Layer    Max.-Head-Change    Column Row Layer    Max.-Flux-Residual            L2-New               L2-Old           Solver-Max-Delh
          0                 1           9             1    1     1       0.1976712249E+00       1    1    1       0.1546483015E+03      0.3718630989E+03      0.3087524083E-01      0.1976712249E+00
          0                 2           7             1    1     1      -0.1504925306E-01       1    1    1      -0.1401366584E+02      0.3215609262E+02      0.3718630989E+03     -0.1504925306E-01
          0                 3           5             1    1     1      -0.9039099752E-03       1    1    1      -0.8122649448E+00      0.1991214387E+01      0.3215609262E+02     -0.9039099752E-03
          0                 4           4             2    1     1      -0.5461676387E-04       1    1    1      -0.4210018297E-01      0.1225307206E+00      0.1991214387E+01     -0.5461676387E-04

    ------------------------------------------------
       NWT REQUIRED            4 OUTER ITERATIONS 
       AND A TOTAL OF         25 INNER ITERATIONS.
    ------------------------------------------------
                                                   Max.-Head-Change                        Max.-Flux-Residual
  Residual-Control   Outer-Iter.   Inner-Iter.     Column Row Layer    Max.-Head-Change    Column Row Layer    Max.-Flux-Residual            L2-New               L2-Old           Solver-Max-Delh
          0                 1           8             1    1     1       0.8009015326E-01       1    1    1       0.6441942186E+02      0.1496198194E+03      0.1225307206E+00      0.8009015326E-01
          0                 2           7             1    2     2      -0.6173236367E-02       1    1    1      -0.5851602477E+01      0.1308862080E+02      0.1496198194E+03     -0.6173236367E-02
          0                 3           5             1    1     1      -0.3677572345E-03       1    1    1      -0.3416024513E+00      0.7960231747E+00      0.1308862080E+02     -0.3677572345E-03
          0                 4           3             3    1     1      -0.2310633684E-04       1    5    1      -0.1700196677E-01      0.5138964967E-01      0.7960231747E+00     -0.2310633684E-04

    ------------------------------------------------
       NWT REQUIRED            4 OUTER ITERATIONS 
       AND A TOTAL OF         23 INNER ITERATIONS.
    ------------------------------------------------
                                                   Max.-Head-Change                        Max.-Flux-Residual
  Residual-Control   Outer-Iter.   Inner-Iter.     Column Row Layer    Max.-Head-Change    Column Row Layer    Max.-Flux-Residual            L2-New               L2-Old           Solver-Max-Delh
          0                 1           7             1    1     1       0.2558941889E-01       1    1    1       0.2159501519E+02      0.5028459709E+02      0.5138964967E-01      0.2558941889E-01
          0                 2           6             1    2     2      -0.2005412001E-02       1    1    1      -0.1961903438E+01      0.4468273548E+01      0.5028459709E+02     -0.2005412001E-02
          0                 3           4             1    1     1      -0.1189714825E-03       1    1    1      -0.1148488279E+00      0.2677773610E+00      0.4468273548E+01     -0.1189714825E-03
          0                 4           2             3    9     1      -0.1064728641E-04       1    7    1      -0.8955456957E-02      0.2475810523E-01      0.2677773610E+00     -0.1064728641E-04

    ------------------------------------------------
       NWT REQUIRED            4 OUTER ITERATIONS 
       AND A TOTAL OF         19 INNER ITERATIONS.
    ------------------------------------------------
                                                   Max.-Head-Change                        Max.-Flux-Residual
  Residual-Control   Outer-Iter.   Inner-Iter.     Column Row Layer    Max.-Head-Change    Column Row Layer    Max.-Flux-Residual            L2-New               L2-Old           Solver-Max-Delh
          0                 1           7             9    9     3       0.1031967873E-01       1    9    1       0.5573942350E+01      0.1506686568E+02      0.2475810523E-01      0.1031967873E-01
          0                 2           5             9    9     3      -0.8912340041E-03       1    9    1      -0.5103599011E+00      0.1348876996E+01      0.1506686568E+02     -0.8912340041E-03
          0                 3           3             9    9     3      -0.4504893780E-04       1    9    1      -0.2643412497E-01      0.8160927711E-01      0.1348876996E+01     -0.4504893780E-04

    ------------------------------------------------
       NWT REQUIRED            3 OUTER ITERATIONS 
       AND A TOTAL OF         15 INNER ITERATIONS.
    ------------------------------------------------
                                                   Max.-Head-Change                        Max.-Flux-Residual
  Residual-Control   Outer-Iter.   Inner-Iter.     Column Row Layer    Max.-Head-Change    Column Row Layer    Max.-Flux-Residual            L2-New               L2-Old           Solver-Max-Delh
          0                 1           6             9    1     1      -0.8253814952E-02       8    1    1      -0.4000245573E+01      0.1033374443E+02      0.8160927711E-01     -0.8253814952E-02
          0                 2           5             9    1     2       0.6248183697E-03       7    1    1       0.3426392699E+00      0.8886661801E+00      0.1033374443E+02      0.6248183697E-03
          0                 3           3             9    1     1       0.4227488122E-04       7    1    1       0.2464307402E-01      0.6330860930E-01      0.8886661801E+00      0.4227488122E-04

    ------------------------------------------------
       NWT REQUIRED            3 OUTER ITERATIONS 
       AND A TOTAL OF         14 INNER ITERATIONS.
    ------------------------------------------------
                                                   Max.-Head-Change                        Max.-Flux-Residual
  Residual-Control   Outer-Iter.   Inner-Iter.     Column Row Layer    Max.-Head-Change    Column Row Layer    Max.-Flux-Residual            L2-New               L2-Old           Solver-Max-Delh
          0                 1           6             9    1     1      -0.5236191170E-02       8    1    1      -0.2477134104E+01      0.7887316145E+01      0.6330860930E-01     -0.5236191170E-02
          0                 2           5             8    1     2       0.4134720415E-03       7    1    1       0.2140072413E+00      0.6708862096E+00      0.7887316145E+01      0.4134720415E-03
          0                 3           3             9    1     1       0.2305929861E-04       1    9    1       0.1441186969E-01      0.4357482446E-01      0.6708862096E+00      0.2305929861E-04

    ------------------------------------------------
       NWT REQUIRED            3 OUTER ITERATIONS 
       AND A TOTAL OF         14 INNER ITERATIONS.
    ------------------------------------------------
                                                   Max.-Head-Change                        Max.-Flux-Residual
  Residual-Control   Outer-Iter.   Inner-Iter.     Column Row Layer    Max.-Head-Change    Column Row Layer    Max.-Flux-Residual            L2-New               L2-Old           Solver-Max-Delh
          0                 1           6             9    1     1      -0.2694001056E-02       1    1    1      -0.1628897071E+01      0.4852739570E+01      0.4357482446E-01     -0.2694001056E-02
          0                 2           4             8    1     2       0.2201294283E-03       1    1    1       0.1439333241E+00      0.4147642161E+00      0.4852739570E+01      0.2201294283E-03
          0                 3           3             5    1     1       0.1371695081E-04       1    9    1       0.1547326206E-01      0.3146785648E-01      0.4147642161E+00      0.1371695081E-04

    ------------------------------------------------
       NWT REQUIRED            3 OUTER ITERATIONS 
       AND A TOTAL OF         13 INNER ITERATIONS.
    ------------------------------------------------
                                                   Max.-Head-Change                        Max.-Flux-Residual
  Residual-Control   Outer-Iter.   Inner-Iter.     Column Row Layer    Max.-Head-Change    Column Row Layer    Max.-Flux-Residual            L2-New               L2-Old           Solver-Max-Delh
          0                 1           6             1    5     1      -0.1384483081E-02       1    1    1      -0.9666710051E+00      0.2668426951E+01      0.3146785648E-01     -0.1384483081E-02
          0                 2           4             1    5     2       0.1127107572E-03       1    1    1       0.8392278221E-01      0.2272993730E+00      0.2668426951E+01      0.1127107572E-03
          0                 3           2             1    5     1       0.9523027133E-05       1    4    1       0.8393000695E-02      0.1935525757E-01      0.2272993730E+00      0.9523027133E-05

    ------------------------------------------------
       NWT REQUIRED            3 OUTER ITERATIONS 
       AND A TOTAL OF         12 INNER ITERATIONS.
    ------------------------------------------------
                                                   Max.-Head-Change                        Max.-Flux-Residual
  Residual-Control   Outer-Iter.   Inner-Iter.     Column Row Layer    Max.-Head-Change    Column Row Layer    Max.-Flux-Residual            L2-New               L2-Old           Solver-Max-Delh
          0                 1           5             5    9     2      -0.8076767632E-03       1    9    1      -0.5620865448E+00      0.1385863556E+01      0.1935525757E-01     -0.8076767632E-03
          0                 2           4             5    9     2       0.6651276642E-04       1    9    1       0.5378774047E-01      0.1198243070E+00      0.1385863556E+01      0.6651276642E-04

    ------------------------------------------------
       NWT REQUIRED            2 OUTER ITERATIONS 
       AND A TOTAL OF          9 INNER ITERATIONS.
    ------------------------------------------------
                                                   Max.-Head-Change                        Max.-Flux-Residual
  Residual-Control   Outer-Iter.   Inner-Iter.     Column Row Layer    Max.-Head-Change    Column Row Layer    Max.-Flux-Residual            L2-New               L2-Old           Solver-Max-Delh
          0                 1           4             9    9     2      -0.4735081596E-03       1    9    1      -0.2913493662E+00      0.6661311856E+00      0.1198243070E+00     -0.4735081596E-03
          0                 2           3             9    9     2       0.3914417258E-04       1    9    1       0.2374921762E-01      0.6177232477E-01      0.6661311856E+00      0.3914417258E-04

    ------------------------------------------------
       NWT REQUIRED            2 OUTER ITERATIONS 
       AND A TOTAL OF          7 INNER ITERATIONS.
    ------------------------------------------------
                                                   Max.-Head-Change                        Max.-Flux-Residual
  Residual-Control   Outer-Iter.   Inner-Iter.     Column Row Layer    Max.-Head-Change    Column Row Layer    Max.-Flux-Residual            L2-New               L2-Old           Solver-Max-Delh
          0                 1           4             6    9     2      -0.1900069408E-03       1    9    1      -0.1311220472E+00      0.2758460751E+00      0.6177232477E-01     -0.1900069408E-03
          0                 2           3             1    9     1       0.1859331818E-04       1    9    1       0.2100690163E-01      0.3765977837E-01      0.2758460751E+00      0.1859331818E-04

    ------------------------------------------------
       NWT REQUIRED            2 OUTER ITERATIONS 
       AND A TOTAL OF          7 INNER ITERATIONS.
    ------------------------------------------------

 OUTPUT CONTROL FOR STRESS PERIOD      1   TIME STEP     2
    SAVE BUDGET
 UBDSV1 SAVING "         STORAGE" ON UNIT7011 AT TIME STEP    2, STRESS PERIOD   1
 UBDSV2 SAVING "   CONSTANT HEAD" ON UNIT7011 AT TIME STEP    2, STRESS PERIOD   1
 UBDSV1 SAVING "FLOW RIGHT FACE " ON UNIT7011 AT TIME STEP    2, STRESS PERIOD   1
 UBDSV1 SAVING "FLOW FRONT FACE " ON UNIT7011 AT TIME STEP    2, STRESS PERIOD   1
 UBDSV1 SAVING "FLOW LOWER FACE " ON UNIT7011 AT TIME STEP    2, STRESS PERIOD   1
 
 
 
 
 
 
 
 
 UBDSV3 SAVING "FARM  NET  RECH." ON UNIT7011 AT TIME STEP    2, STRESS PERIOD   1
 UBDSV4 SAVING " GHOST-NODE HEAD" ON UNIT7011 AT TIME STEP    2, STRESS PERIOD   1
1
  VOLUMETRIC BUDGET FOR ENTIRE MODEL AT END OF TIME STEP    2 IN STRESS PERIOD      1
  ------------------------------------------------------------------------------

     CUMULATIVE VOLUMES      L**3       RATES FOR THIS TIME STEP      L**3/T
     ------------------                 ------------------------

           IN:                                      IN:
           ---                                      ---
             STORAGE =       58067.2578               STORAGE =         290.9165
       CONSTANT HEAD =           0.0000         CONSTANT HEAD =           0.0000
          FARM WELLS =           0.0000            FARM WELLS =           0.0000
    FARM  NET  RECH. =       54389.4219      FARM  NET  RECH. =        1787.9495
     GHOST-NODE HEAD =     2610039.5000       GHOST-NODE HEAD =       46771.3516

            TOTAL IN =     2722496.2500              TOTAL IN =       48850.2188

          OUT:                                     OUT:
          ----                                     ----
             STORAGE =     2722496.5000               STORAGE =       48850.2305
       CONSTANT HEAD =           0.0000         CONSTANT HEAD =           0.0000
          FARM WELLS =           0.0000            FARM WELLS =           0.0000
    FARM  NET  RECH. =           0.0000      FARM  NET  RECH. =           0.0000
     GHOST-NODE HEAD =           0.0000       GHOST-NODE HEAD =           0.0000

           TOTAL OUT =     2722496.5000             TOTAL OUT =       48850.2305

            IN - OUT =          -0.2500              IN - OUT =      -1.1719E-02

 PERCENT DISCREPANCY =          -0.00     PERCENT DISCREPANCY =          -0.00






          TIME SUMMARY AT END OF TIME STEP     2 IN STRESS PERIOD      1
                    SECONDS     MINUTES      HOURS       DAYS        YEARS
                    -----------------------------------------------------------
   TIME STEP LENGTH 1.31414E+06  21902.      365.04      15.210     4.16427E-02
 STRESS PERIOD TIME 2.62829E+06  43805.      730.08      30.420     8.32854E-02
         TOTAL TIME 2.62829E+06  43805.      730.08      30.420     8.32854E-02
1
1
  FLUX ACROSS PARENT-CHILD INTERFACE AT TIME STEP  2 IN STRESS PERIOD    1
  ------------------------------------------------------------------------
 G-N FLUX        PARENT        CHILD         DIFFERENCE      % DIFFERENCE
  RATE IN:      4.6772E+04    4.6771E+04     9.2188E-01        0.0020
 RATE OUT:      0.0000E+00    0.0000E+00     0.0000E+00        0.0000
1
                            STRESS PERIOD NO.      2, LENGTH =   30.42000    
                            -----------------------------------------------

                              NUMBER OF TIME STEPS =     2

                               MULTIPLIER FOR DELT =     1.000

                            INITIAL TIME STEP SIZE =   15.21000    
 WELL NO. LAYER    ROW    COL  F-WELL ID    FARM ID         QMAX         QMAXRESET       LGRGRID         
 --------------------------------------------------------------------------------------------------------
       1      1      8      2          2          1      5.0000E+00     0    0
       2      1      8      8          3          1      5.0000E+00     0    0

 Parameter:  WELLS1
 WELL NO. LAYER    ROW    COL  F-WELL ID    FARM ID         QMAX         QMAXRESET       LGRGRID         
 --------------------------------------------------------------------------------------------------------
       3      1      8      2          2          1      5.0000E+03              0              0
       4      1      8      8          3          1      5.0000E+03              0              0

 NUMBER OF ACTIVE FARM WELLS:        4

 FARM-ID  NUMBER OF WELLS PER FARM  TOTAL MAX.CAPACITY PER FARM
       1                         4                   10010.0000
       2                         0                       0.0000
[...]
          0                 3           2             9    9     1       0.9910917276E-05       7    9    1       0.8487526618E-02      0.2152252540E-01      0.2277846768E+00      0.9910917276E-05

    ------------------------------------------------
       NWT REQUIRED            3 OUTER ITERATIONS 
       AND A TOTAL OF         11 INNER ITERATIONS.
    ------------------------------------------------
                                                   Max.-Head-Change                        Max.-Flux-Residual
  Residual-Control   Outer-Iter.   Inner-Iter.     Column Row Layer    Max.-Head-Change    Column Row Layer    Max.-Flux-Residual            L2-New               L2-Old           Solver-Max-Delh
          0                 1           5             1    1     1      -0.8244529782E-03       1    1    1      -0.6831146810E+00      0.1773201290E+01      0.2152252540E-01     -0.8244529782E-03
          0                 2           4             4    1     1       0.7208189993E-04       1    1    1       0.6660356908E-01      0.1793940541E+00      0.1773201290E+01      0.7208189993E-04

    ------------------------------------------------
       NWT REQUIRED            2 OUTER ITERATIONS 
       AND A TOTAL OF          9 INNER ITERATIONS.
    ------------------------------------------------
                                                   Max.-Head-Change                        Max.-Flux-Residual
  Residual-Control   Outer-Iter.   Inner-Iter.     Column Row Layer    Max.-Head-Change    Column Row Layer    Max.-Flux-Residual            L2-New               L2-Old           Solver-Max-Delh
          0                 1           5             1    1     1      -0.5723982643E-03       1    1    1      -0.4661972868E+00      0.1202893153E+01      0.1793940541E+00     -0.5723982643E-03
          0                 2           4             1    1     1       0.4971747875E-04       1    1    1       0.4811047332E-01      0.1212810569E+00      0.1202893153E+01      0.4971747875E-04

    ------------------------------------------------
       NWT REQUIRED            2 OUTER ITERATIONS 
       AND A TOTAL OF          9 INNER ITERATIONS.
    ------------------------------------------------
                                                   Max.-Head-Change                        Max.-Flux-Residual
  Residual-Control   Outer-Iter.   Inner-Iter.     Column Row Layer    Max.-Head-Change    Column Row Layer    Max.-Flux-Residual            L2-New               L2-Old           Solver-Max-Delh
          0                 1           5             1    1     1      -0.3383720451E-03       1    1    1      -0.2785562079E+00      0.6931819804E+00      0.1212810569E+00     -0.3383720451E-03
          0                 2           3             1    1     1       0.3213439725E-04       1    1    1       0.2997550520E-01      0.7653932235E-01      0.6931819804E+00      0.3213439725E-04

    ------------------------------------------------
       NWT REQUIRED            2 OUTER ITERATIONS 
       AND A TOTAL OF          8 INNER ITERATIONS.
    ------------------------------------------------

 OUTPUT CONTROL FOR STRESS PERIOD     24   TIME STEP     1
    SAVE BUDGET
 UBDSV1 SAVING "         STORAGE" ON UNIT7011 AT TIME STEP    1, STRESS PERIOD  24
 UBDSV2 SAVING "   CONSTANT HEAD" ON UNIT7011 AT TIME STEP    1, STRESS PERIOD  24
 UBDSV1 SAVING "FLOW RIGHT FACE " ON UNIT7011 AT TIME STEP    1, STRESS PERIOD  24
 UBDSV1 SAVING "FLOW FRONT FACE " ON UNIT7011 AT TIME STEP    1, STRESS PERIOD  24
 UBDSV1 SAVING "FLOW LOWER FACE " ON UNIT7011 AT TIME STEP    1, STRESS PERIOD  24
 
 
 
 
 
 
 
 
 UBDSV3 SAVING "FARM  NET  RECH." ON UNIT7011 AT TIME STEP    1, STRESS PERIOD  24
 UBDSV4 SAVING " GHOST-NODE HEAD" ON UNIT7011 AT TIME STEP    1, STRESS PERIOD  24
1
  FLUX ACROSS PARENT-CHILD INTERFACE AT TIME STEP  1 IN STRESS PERIOD   24
  ------------------------------------------------------------------------
 G-N FLUX        PARENT        CHILD         DIFFERENCE      % DIFFERENCE
  RATE IN:      1.9188E+03    1.9190E+03    -1.3379E-01       -0.0070
 RATE OUT:      1.8459E+03    1.8459E+03    -2.2095E-02       -0.0012
 
 SOLVING FOR HEAD 
                                                   Max.-Head-Change                        Max.-Flux-Residual
  Residual-Control   Outer-Iter.   Inner-Iter.     Column Row Layer    Max.-Head-Change    Column Row Layer    Max.-Flux-Residual            L2-New               L2-Old           Solver-Max-Delh
          0                 1           9             9    5     1       0.4562531183E+00       1    1    1       0.2431187348E+03      0.7047399408E+03      0.7653932235E-01      0.4562531183E+00
          0                 2           8             9    5     1      -0.3980390624E-01       1    1    1      -0.2431722222E+02      0.7027573150E+02      0.7047399408E+03     -0.3980390624E-01
          0                 3           6             9    5     1      -0.1983374397E-02       1    1    1      -0.1204822814E+01      0.3496788693E+01      0.7027573150E+02     -0.1983374397E-02
          0                 4           4             7    5     1      -0.9996401533E-04       1    1    1      -0.6023503060E-01      0.1790749562E+00      0.3496788693E+01     -0.9996401533E-04

    ------------------------------------------------
       NWT REQUIRED            4 OUTER ITERATIONS 
       AND A TOTAL OF         27 INNER ITERATIONS.
    ------------------------------------------------
                                                   Max.-Head-Change                        Max.-Flux-Residual
  Residual-Control   Outer-Iter.   Inner-Iter.     Column Row Layer    Max.-Head-Change    Column Row Layer    Max.-Flux-Residual            L2-New               L2-Old           Solver-Max-Delh
          0                 1           8             1    1     1       0.1494270695E+00       1    1    1       0.1248471503E+03      0.3339810444E+03      0.1790749562E+00      0.1494270695E+00
          0                 2           7             1    1     1      -0.1295313120E-01       1    1    1      -0.1254256702E+02      0.3350622684E+02      0.3339810444E+03     -0.1295313120E-01
          0                 3           5             1    1     1      -0.6401324684E-03       1    1    1      -0.6214993660E+00      0.1670983888E+01      0.3350622684E+02     -0.6401324684E-03
          0                 4           3             1    1     1      -0.3373944724E-04       1    1    1      -0.3323462431E-01      0.8134038888E-01      0.1670983888E+01     -0.3373944724E-04

    ------------------------------------------------
       NWT REQUIRED            4 OUTER ITERATIONS 
       AND A TOTAL OF         23 INNER ITERATIONS.
    ------------------------------------------------
                                                   Max.-Head-Change                        Max.-Flux-Residual
  Residual-Control   Outer-Iter.   Inner-Iter.     Column Row Layer    Max.-Head-Change    Column Row Layer    Max.-Flux-Residual            L2-New               L2-Old           Solver-Max-Delh
          0                 1           8             1    1     1       0.7642464052E-01       1    1    1       0.6376662824E+02      0.1720963767E+03      0.8134038888E-01      0.7642464052E-01
          0                 2           7             1    1     1      -0.6622838213E-02       1    1    1      -0.6402499361E+01      0.1724306416E+02      0.1720963767E+03     -0.6622838213E-02
          0                 3           5             1    1     1      -0.3300337366E-03       1    1    1      -0.3189720516E+00      0.8613347614E+00      0.1724306416E+02     -0.3300337366E-03
          0                 4           3             9    1     1      -0.1805442500E-04       1    9    1      -0.1376189111E-01      0.4426716902E-01      0.8613347614E+00     -0.1805442500E-04

    ------------------------------------------------
       NWT REQUIRED            4 OUTER ITERATIONS 
       AND A TOTAL OF         23 INNER ITERATIONS.
    ------------------------------------------------
                                                   Max.-Head-Change                        Max.-Flux-Residual
  Residual-Control   Outer-Iter.   Inner-Iter.     Column Row Layer    Max.-Head-Change    Column Row Layer    Max.-Flux-Residual            L2-New               L2-Old           Solver-Max-Delh
          0                 1           8             1    1     1       0.3465246567E-01       1    1    1       0.2902800917E+02      0.7628961149E+02      0.4426716902E-01      0.3465246567E-01
          0                 2           6             1    1     1      -0.3000284543E-02       1    1    1      -0.2908625299E+01      0.7635879590E+01      0.7628961149E+02     -0.3000284543E-02
          0                 3           4             1    1     1      -0.1487928334E-03       1    1    1      -0.1454110440E+00      0.3823604548E+00      0.7635879590E+01     -0.1487928334E-03
          0                 4           2             2    1     1      -0.8906234950E-05       1    9    1      -0.1019299333E-01      0.2428809901E-01      0.3823604548E+00     -0.8906234950E-05

    ------------------------------------------------
       NWT REQUIRED            4 OUTER ITERATIONS 
       AND A TOTAL OF         20 INNER ITERATIONS.
    ------------------------------------------------
                                                   Max.-Head-Change                        Max.-Flux-Residual
  Residual-Control   Outer-Iter.   Inner-Iter.     Column Row Layer    Max.-Head-Change    Column Row Layer    Max.-Flux-Residual            L2-New               L2-Old           Solver-Max-Delh
          0                 1           7             1    1     1       0.1356226147E-01       1    1    1       0.1149603092E+02      0.2868619561E+02      0.2428809901E-01      0.1356226147E-01
          0                 2           6             1    1     1      -0.1172864618E-02       1    1    1      -0.1147628284E+01      0.2868500830E+01      0.2868619561E+02     -0.1172864618E-02
          0                 3           4             1    1     2      -0.5797162469E-04       1    9    1      -0.5892209674E-01      0.1435562422E+00      0.2868500830E+01     -0.5797162469E-04

    ------------------------------------------------
       NWT REQUIRED            3 OUTER ITERATIONS 
       AND A TOTAL OF         17 INNER ITERATIONS.
    ------------------------------------------------
                                                   Max.-Head-Change                        Max.-Flux-Residual
  Residual-Control   Outer-Iter.   Inner-Iter.     Column Row Layer    Max.-Head-Change    Column Row Layer    Max.-Flux-Residual            L2-New               L2-Old           Solver-Max-Delh
          0                 1           6             1    1     2       0.4233822834E-02       1    1    1       0.3581138917E+01      0.8706173148E+01      0.1435562422E+00      0.4233822834E-02
          0                 2           5             1    1     2      -0.3652721346E-03       1    1    1      -0.3635847957E+00      0.8705496667E+00      0.8706173148E+01     -0.3652721346E-03
          0                 3           3             1    1     2      -0.1833186829E-04       1    9    1      -0.1714372693E-01      0.4566859415E-01      0.8705496667E+00     -0.1833186829E-04

    ------------------------------------------------
       NWT REQUIRED            3 OUTER ITERATIONS 
       AND A TOTAL OF         14 INNER ITERATIONS.
    ------------------------------------------------
                                                   Max.-Head-Change                        Max.-Flux-Residual
  Residual-Control   Outer-Iter.   Inner-Iter.     Column Row Layer    Max.-Head-Change    Column Row Layer    Max.-Flux-Residual            L2-New               L2-Old           Solver-Max-Delh
          0                 1           5             9    9     1      -0.1849641435E-02       8    9    1      -0.1238158602E+01      0.2435043092E+01      0.4566859415E-01     -0.1849641435E-02
          0                 2           4             9    9     1       0.1595068842E-03       8    9    1       0.1241831856E+00      0.2458574740E+00      0.2435043092E+01      0.1595068842E-03
          0                 3           1             9    9     1       0.6978784788E-05       9    9    1       0.8345689494E-02      0.1416701510E-01      0.2458574740E+00      0.6978784788E-05

    ------------------------------------------------
       NWT REQUIRED            3 OUTER ITERATIONS 
       AND A TOTAL OF         10 INNER ITERATIONS.
    ------------------------------------------------
                                                   Max.-Head-Change                        Max.-Flux-Residual
  Residual-Control   Outer-Iter.   Inner-Iter.     Column Row Layer    Max.-Head-Change    Column Row Layer    Max.-Flux-Residual            L2-New               L2-Old           Solver-Max-Delh
          0                 1           5             9    9     1      -0.1113628589E-02       9    9    1      -0.6458244499E+00      0.1818577212E+01      0.1416701510E-01     -0.1113628589E-02
          0                 2           4             9    9     1       0.9935330221E-04       9    9    1       0.6835621985E-01      0.1881538135E+00      0.1818577212E+01      0.9935330221E-04

    ------------------------------------------------
       NWT REQUIRED            2 OUTER ITERATIONS 
       AND A TOTAL OF          9 INNER ITERATIONS.
    ------------------------------------------------
                                                   Max.-Head-Change                        Max.-Flux-Residual
  Residual-Control   Outer-Iter.   Inner-Iter.     Column Row Layer    Max.-Head-Change    Column Row Layer    Max.-Flux-Residual            L2-New               L2-Old           Solver-Max-Delh
          0                 1           5             5    1     2      -0.6950450782E-03       1    1    1      -0.5105917213E+00      0.1475738901E+01      0.1881538135E+00     -0.6950450782E-03
          0                 2           4             5    1     1       0.5902595399E-04       1    1    1       0.4485877021E-01      0.1402528120E+00      0.1475738901E+01      0.5902595399E-04

    ------------------------------------------------
       NWT REQUIRED            2 OUTER ITERATIONS 
       AND A TOTAL OF          9 INNER ITERATIONS.
    ------------------------------------------------
                                                   Max.-Head-Change                        Max.-Flux-Residual
  Residual-Control   Outer-Iter.   Inner-Iter.     Column Row Layer    Max.-Head-Change    Column Row Layer    Max.-Flux-Residual            L2-New               L2-Old           Solver-Max-Delh
          0                 1           5             1    1     1      -0.4565716065E-03       1    1    1      -0.3760506909E+00      0.9618572341E+00      0.1402528120E+00     -0.4565716065E-03
          0                 2           4             1    1     1       0.3957241567E-04       1    1    1       0.4045888188E-01      0.9843509492E-01      0.9618572341E+00      0.3957241567E-04

    ------------------------------------------------
       NWT REQUIRED            2 OUTER ITERATIONS 
       AND A TOTAL OF          9 INNER ITERATIONS.
    ------------------------------------------------
                                                   Max.-Head-Change                        Max.-Flux-Residual
  Residual-Control   Outer-Iter.   Inner-Iter.     Column Row Layer    Max.-Head-Change    Column Row Layer    Max.-Flux-Residual            L2-New               L2-Old           Solver-Max-Delh
          0                 1           5             1    1     1      -0.2713148265E-03       1    1    1      -0.2300311385E+00      0.5579601808E+00      0.9843509492E-01     -0.2713148265E-03
          0                 2           3             1    2     1       0.2338502913E-04       1    9    1       0.2277069283E-01      0.5860490053E-01      0.5579601808E+00      0.2338502913E-04

    ------------------------------------------------
       NWT REQUIRED            2 OUTER ITERATIONS 
       AND A TOTAL OF          8 INNER ITERATIONS.
    ------------------------------------------------

 OUTPUT CONTROL FOR STRESS PERIOD     24   TIME STEP     2
    PRINT BUDGET
    SAVE HEAD FOR ALL LAYERS
    SAVE BUDGET
 UBDSV1 SAVING "         STORAGE" ON UNIT7011 AT TIME STEP    2, STRESS PERIOD  24
 UBDSV2 SAVING "   CONSTANT HEAD" ON UNIT7011 AT TIME STEP    2, STRESS PERIOD  24
 UBDSV1 SAVING "FLOW RIGHT FACE " ON UNIT7011 AT TIME STEP    2, STRESS PERIOD  24
 UBDSV1 SAVING "FLOW FRONT FACE " ON UNIT7011 AT TIME STEP    2, STRESS PERIOD  24
 UBDSV1 SAVING "FLOW LOWER FACE " ON UNIT7011 AT TIME STEP    2, STRESS PERIOD  24
 
 
 
 
 
 
 
 
 UBDSV3 SAVING "FARM  NET  RECH." ON UNIT7011 AT TIME STEP    2, STRESS PERIOD  24
 UBDSV4 SAVING " GHOST-NODE HEAD" ON UNIT7011 AT TIME STEP    2, STRESS PERIOD  24

 HEAD WILL BE SAVED ON UNIT 2211 AT END OF TIME STEP     2, STRESS PERIOD     24
1
  VOLUMETRIC BUDGET FOR ENTIRE MODEL AT END OF TIME STEP    2 IN STRESS PERIOD     24
  ------------------------------------------------------------------------------

     CUMULATIVE VOLUMES      L**3       RATES FOR THIS TIME STEP      L**3/T
     ------------------                 ------------------------

           IN:                                      IN:
           ---                                      ---
             STORAGE =      310021.1562               STORAGE =           0.0000
       CONSTANT HEAD =           0.0000         CONSTANT HEAD =           0.0000
          FARM WELLS =           0.0000            FARM WELLS =           0.0000
    FARM  NET  RECH. =     1699234.2500      FARM  NET  RECH. =        2146.3672
     GHOST-NODE HEAD =     5855204.0000       GHOST-NODE HEAD =        1697.6400

            TOTAL IN =     7864459.5000              TOTAL IN =        3844.0073

          OUT:                                     OUT:
          ----                                     ----
             STORAGE =     3939866.2500               STORAGE =        1811.5391
       CONSTANT HEAD =           0.0000         CONSTANT HEAD =           0.0000
          FARM WELLS =     2490578.0000            FARM WELLS =           0.0000
    FARM  NET  RECH. =           0.0000      FARM  NET  RECH. =           0.0000
     GHOST-NODE HEAD =     1434013.1250       GHOST-NODE HEAD =        2032.4622

           TOTAL OUT =     7864457.0000             TOTAL OUT =        3844.0012

            IN - OUT =           2.5000              IN - OUT =       6.1035E-03

 PERCENT DISCREPANCY =           0.00     PERCENT DISCREPANCY =           0.00






          TIME SUMMARY AT END OF TIME STEP     2 IN STRESS PERIOD     24
                    SECONDS     MINUTES      HOURS       DAYS        YEARS
                    -----------------------------------------------------------
   TIME STEP LENGTH 1.31414E+06  21902.      365.04      15.210     4.16427E-02
 STRESS PERIOD TIME 2.62829E+06  43805.      730.08      30.420     8.32854E-02
         TOTAL TIME 6.30789E+07 1.05132E+06  17522.      730.08      1.9989    
1
1
  FLUX ACROSS PARENT-CHILD INTERFACE AT TIME STEP  2 IN STRESS PERIOD   24
  ------------------------------------------------------------------------
 G-N FLUX        PARENT        CHILD         DIFFERENCE      % DIFFERENCE
  RATE IN:      1.6975E+03    1.6976E+03    -1.7383E-01       -0.0102
 RATE OUT:      2.0322E+03    2.0325E+03    -2.1741E-01       -0.0107
