
                       OWHM 1.0
    U.S. GEOLOGICAL SURVEY MODULAR FINITE-DIFFERENCE 
         ONE-WATER HYDROLOGIC-FLOW MODEL [OWHM]
              Version 1.0.0   11/05/2014

 INCLUDES:
          MODFLOW-2005 Version 1.11.0  08/08/2013
          FMP          Version 3.0.0   08/01/2014
          SWR          Version 1.03.0  09/24/2013
          SWI          Version 2.0.0   07/22/2013
          LGR          Version 2.0.0   09/19/2013
          NWT          Version 1.0.9   07/01/2014


 LIST FILE: ../../test-out-owhm-lgr/fmp-lgr-lpf/OWHM_EX2.lst
                         UNIT    7

 OPENING OWHM_EX2.lpf
 FILE TYPE:LPF   UNIT    9   STATUS:OLD    
 FORMAT:FORMATTED              ACCESS:SEQUENTIAL          

 OPENING OWHM_EX2.ba6
 FILE TYPE:BAS6   UNIT   10   STATUS:OLD    
 FORMAT:FORMATTED              ACCESS:SEQUENTIAL          

 OPENING OWHM_EX2.dis
 FILE TYPE:DIS   UNIT   11   STATUS:OLD    
 FORMAT:FORMATTED              ACCESS:SEQUENTIAL          

 OPENING OWHM_EX2.fmp
 FILE TYPE:FMP   UNIT   12   STATUS:OLD    
 FORMAT:FORMATTED              ACCESS:SEQUENTIAL          

 OPENING OWHM_EX2.sfr
 FILE TYPE:SFR   UNIT   14   STATUS:OLD    
 FORMAT:FORMATTED              ACCESS:SEQUENTIAL          

 OPENING OWHM_EX2_MNW1.mnw
 FILE TYPE:MNW1   UNIT   15   STATUS:OLD    
 FORMAT:FORMATTED              ACCESS:SEQUENTIAL          

 OPENING OWHM_EX2.ghb
 FILE TYPE:GHB   UNIT   16   STATUS:OLD    
 FORMAT:FORMATTED              ACCESS:SEQUENTIAL          
#uzf          17 OWHM_EX2.uzf                                                                                                                                                                                                                                                                                                                                                                                                                                                                                                                                                                                                                                                                                               

 OPENING OWHM_EX2.oc
 FILE TYPE:OC   UNIT   19   STATUS:OLD    
 FORMAT:FORMATTED              ACCESS:SEQUENTIAL          
#hyd          21 hyd_all.hyd                                                                                                                                                                                                                                                                                                                                                                                                                                                                                                                                                                                                                                                                                                
# Solvers                                                                                                                                                                                                                                                                                                                                                                                                                                                                                                                                                                                                                                                                                                                   

 OPENING OWHM_EX2.pcg
 FILE TYPE:PCG   UNIT   18   STATUS:OLD    
 FORMAT:FORMATTED              ACCESS:SEQUENTIAL          
#DATA                                                                                                                                                                                                                                                                                                                                                                                                                                                                                                                                                                                                                                                                                                                       

 OPENING ../../test-out-owhm-lgr/fmp-lgr-lpf/OWHM_EX2.hed
 FILE TYPE:DATA   UNIT   22   STATUS:UNKNOWN
 FORMAT:FORMATTED              ACCESS:SEQUENTIAL          
#FMP Datafiles                                                                                                                                                                                                                                                                                                                                                                                                                                                                                                                                                                                                                                                                                                              

 OPENING ./DATA_FMP/OFE.in
 FILE TYPE:DATA   UNIT   20   STATUS:OLD    
 FORMAT:FORMATTED              ACCESS:SEQUENTIAL          

 OPENING ./DATA_FMP/ROOT.in
 FILE TYPE:DATA   UNIT   30   STATUS:OLD    
 FORMAT:FORMATTED              ACCESS:SEQUENTIAL          

 OPENING ./DATA_FMP/KC.in
 FILE TYPE:DATA   UNIT   40   STATUS:OLD    
 FORMAT:FORMATTED              ACCESS:SEQUENTIAL          

 OPENING ./DATA_FMP/FTE.in
 FILE TYPE:DATA   UNIT   50   STATUS:OLD    
 FORMAT:FORMATTED              ACCESS:SEQUENTIAL          

 OPENING ./DATA_FMP/INEFFSW.in
 FILE TYPE:DATA   UNIT   60   STATUS:OLD    
 FORMAT:FORMATTED              ACCESS:SEQUENTIAL          

 OPENING ./DATA_FMP/NRDFAC.in
 FILE TYPE:DATA   UNIT   80   STATUS:OLD    
 FORMAT:FORMATTED              ACCESS:SEQUENTIAL          
#                                                                                                                                                                                                                                                                                                                                                                                                                                                                                                                                                                                                                                                                                                                           

 OPENING ../../test-out-owhm-lgr/fmp-lgr-lpf/CBC.OUT
 FILE TYPE:DATA(BINARY)   UNIT   70   STATUS:UNKNOWN
 FORMAT:UNFORMATTED            ACCESS:STREAM              

 OPENING ../../test-out-owhm-lgr/fmp-lgr-lpf/SFR_OUTPUT.txt
 FILE TYPE:DATA   UNIT   69   STATUS:UNKNOWN
 FORMAT:FORMATTED              ACCESS:SEQUENTIAL          
#DATA(BINARY)  71 ../../test-out-owhm-lgr/fmp-lgr-lpf/hyd_all.sav                                                                                                                                                                                                                                                                                                                                                                                                                                                                                                                                                                                                                                                           
#DATA(BINARY)  61 ../../test-out-owhm-lgr/fmp-lgr-lpf/f5&8bin.uzfot  Output file for recharge and ground-water discharge                                                                                                                                                                                                                                                                                                                                                                                                                                                                                                                                                                                                    
#DATA          62 ../../test-out-owhm-lgr/fmp-lgr-lpf/f5_r2c2.opt1   Output file for cell in row 2, col. 2 of farm 5 using IUZOPT=1                                                                                                                                                                                                                                                                                                                                                                                                                                                                                                                                                                                         
#DATA          63 ../../test-out-owhm-lgr/fmp-lgr-lpf/f5_r3c3.opt2   Output file for cell in row 3, col. 3 of farm 5 using IUZOPT=2                                                                                                                                                                                                                                                                                                                                                                                                                                                                                                                                                                                         
#DATA          64 ../../test-out-owhm-lgr/fmp-lgr-lpf/f5_r4c4.opt3   Output file for cell in row 4, col. 4 of farm 5 using IUZOPT=3                                                                                                                                                                                                                                                                                                                                                                                                                                                                                                                                                                                         
#DATA          65 ../../test-out-owhm-lgr/fmp-lgr-lpf/f5_r5c4.opt2   Output file for cell in row 5, col. 4 of farm 5 using IUZOPT=2                                                                                                                                                                                                                                                                                                                                                                                                                                                                                                                                                                                         
#DATA          66 ../../test-out-owhm-lgr/fmp-lgr-lpf/f8_r10c20.opt2 Output file for cell in row 10, col. 20 of farm 8 using IUZOPT=2                                                                                                                                                                                                                                                                                                                                                                                                                                                                                                                                                                                       
#DATA          67 ../../test-out-owhm-lgr/fmp-lgr-lpf/f5&8.uzfot     Output file of times series of unsaturated-zone water budgets                                                                                                                                                                                                                                                                                                                                                                                                                                                                                                                                                                                          

 BAS -- BASIC PACKAGE, VERSION 7, 5/2/2005 INPUT READ FROM UNIT   10
 
 MODFLOW was compiled using mixed precision
 Precision of REAL variables:           6
 Precision of DOUBLE PRECISION variables:          15

 DISCRETIZATION INPUT DATA READ FROM UNIT   11
 # generic model 1 transient discretization file

*** DIS COORDINATE SYSTEM NOT SEPECIFIED ***
DEFAULT VALUES APPLIED ARE 0° ROTATION
WITH THE ORIGIN (0,0) LOCATED AT THE MODEL'S LOWER LEFT CORNER


    4 LAYERS        23 ROWS        20 COLUMNS
     24 STRESS PERIOD(S) IN SIMULATION
 MODEL TIME UNIT IS DAYS
 MODEL LENGTH UNIT IS METERS
  Confining bed flag for each layer:
   1   1   1   0

                     DELR =   500.000    

                     DELC =   500.000    

 OPENING FILE ON UNIT   99:
 ./DATA_FMP/GSE.in                                                                                                                                                                                                                                                                                                                                                                                                                                                                                                                                                                                                                                                                                                           



           TOP ELEVATION OF LAYER 1
 READING ON UNIT   99 WITH FORMAT: (FREE)              

   MODEL LAYER BOTTOM EL. =   205.000     FOR LAYER   1

 BOT. EL. OF QUASI-3D BED =   200.000     FOR LAYER   1

   MODEL LAYER BOTTOM EL. =   140.000     FOR LAYER   2

 BOT. EL. OF QUASI-3D BED =   125.000     FOR LAYER   2

   MODEL LAYER BOTTOM EL. =   65.0000     FOR LAYER   3

 BOT. EL. OF QUASI-3D BED =   60.0000     FOR LAYER   3

   MODEL LAYER BOTTOM EL. =   0.00000     FOR LAYER   4


 STRESS PERIOD     LENGTH       TIME STEPS     MULTIPLIER FOR DELT    SS FLAG
 ----------------------------------------------------------------------------
        1         30.42000          2                    1.000         TR
        2         30.42000          2                    1.000         TR
        3         30.42000          2                    1.000         TR
        4         30.42000          2                    1.000         TR
        5         30.42000          2                    1.000         TR
        6         30.42000          2                    1.000         TR
        7         30.42000          2                    1.000         TR
        8         30.42000          2                    1.000         TR
        9         30.42000          2                    1.000         TR
       10         30.42000          2                    1.000         TR
       11         30.42000          2                    1.000         TR
       12         30.42000          2                    1.000         TR
       13         30.42000          2                    1.000         TR
       14         30.42000          2                    1.000         TR
       15         30.42000          2                    1.000         TR
       16         30.42000          2                    1.000         TR
       17         30.42000          2                    1.000         TR
       18         30.42000          2                    1.000         TR
       19         30.42000          2                    1.000         TR
       20         30.42000          2                    1.000         TR
       21         30.42000          2                    1.000         TR
       22         30.42000          2                    1.000         TR
       23         30.42000          2                    1.000         TR
       24         30.42000          2                    1.000         TR

 TRANSIENT SIMULATION



 
 # generic model 1                                                               
 THE FREE FORMAT OPTION HAS BEEN SELECTED

 THE MAX STORAGE FOR PROPERTIES DEFINED BY PARAMETERS IS: 
 MAX STORAGE OF PARAMETERS (MXPAR)  IS       2000
 MAX STORAGE OF INSTANCES  (MXINST) IS      50000
 MAX STORAGE OF CLUSTERS   (MXCLST) IS    2000000




                     BOUNDARY ARRAY FOR LAYER   1
 READING ON UNIT   10 WITH FORMAT: (FREE)              



                     BOUNDARY ARRAY FOR LAYER   2
 READING ON UNIT   10 WITH FORMAT: (FREE)              



                     BOUNDARY ARRAY FOR LAYER   3
 READING ON UNIT   10 WITH FORMAT: (FREE)              



                     BOUNDARY ARRAY FOR LAYER   4
 READING ON UNIT   10 WITH FORMAT: (FREE)              

CHECKING FOR VALID MODEL DIMENIONS FOR DELR, DELC, AND THICKNESS


 AQUIFER HEAD WILL BE SET TO  -9.9900     AT ALL NO-FLOW NODES (IBOUND=0).



                       INITIAL HEAD FOR LAYER   1
 READING ON UNIT   10 WITH FORMAT: (FREE)              



                       INITIAL HEAD FOR LAYER   2
 READING ON UNIT   10 WITH FORMAT: (FREE)              



                       INITIAL HEAD FOR LAYER   3
 READING ON UNIT   10 WITH FORMAT: (FREE)              



                       INITIAL HEAD FOR LAYER   4
 READING ON UNIT   10 WITH FORMAT: (FREE)              

 OUTPUT CONTROL IS SPECIFIED ONLY AT TIME STEPS FOR WHICH OUTPUT IS DESIRED
 HEADS WILL BE SAVED WITH FORMAT: (100F8.2)           
 SAVED HEADS WILL BE LABELED
 COMPACT CELL-BY-CELL BUDGET FILES WILL BE WRITTEN
 HEAD PRINT FORMAT CODE IS  -3    DRAWDOWN PRINT FORMAT CODE IS   0
 HEADS WILL BE SAVED ON UNIT   22    DRAWDOWNS WILL BE SAVED ON UNIT    0  WATER BUDGETs WILL BE SAVED ON UNIT 

 LGR2 -- LOCAL GRID REFINEMENT, VERSION 2.0, 06/25/2013
        INPUT READ FOR MODEL  1 DEFINED BY NAME FILE OWHM_EX2.nam

 LOCAL GRID REFINEMENT IS ACTIVE FOR PARENT ONLY

 LPF -- LAYER-PROPERTY FLOW PACKAGE, VERSION 7, 5/2/2005
         INPUT READ FROM UNIT    9
 CELL-BY-CELL FLOWS WILL BE SAVED ON UNIT   70
 HEAD AT CELLS THAT CONVERT TO DRY=   2220.0    
 No named parameters

   LAYER FLAGS:
 LAYER       LAYTYP        LAYAVG         CHANI        LAYVKA        LAYWET
 ---------------------------------------------------------------------------
    1             1             0     1.000E+00             1             0
    2             0             0     1.000E+00             1             0
    3             0             0     1.000E+00             1             0
    4             0             0     1.000E+00             1             0

   INTERPRETATION OF LAYER FLAGS:
                        INTERBLOCK     HORIZONTAL    DATA IN
         LAYER TYPE   TRANSMISSIVITY   ANISOTROPY   ARRAY VKA   WETTABILITY
 LAYER      (LAYTYP)      (LAYAVG)       (CHANI)      (LAYVKA)      (LAYWET)
 ---------------------------------------------------------------------------
    1   CONVERTIBLE      HARMONIC     1.000E+00    ANISOTROPY  NON-WETTABLE
    2      CONFINED      HARMONIC     1.000E+00    ANISOTROPY  NON-WETTABLE
    3      CONFINED      HARMONIC     1.000E+00    ANISOTROPY  NON-WETTABLE
    4      CONFINED      HARMONIC     1.000E+00    ANISOTROPY  NON-WETTABLE

 WETTING CAPABILITY IS NOT ACTIVE IN ANY LAYER

    HYD. COND. ALONG ROWS =   10.0000     FOR LAYER   1

  HORIZ. TO VERTICAL ANI. =   1.00000     FOR LAYER   1

         SPECIFIC STORAGE =  1.000000E-05 FOR LAYER   1

           SPECIFIC YIELD =  2.000000E-02 FOR LAYER   1

 QUASI3D VERT. HYD. COND. =  2.000000E-03 FOR LAYER   1

    HYD. COND. ALONG ROWS =   1.50000     FOR LAYER   2

  HORIZ. TO VERTICAL ANI. =   1.00000     FOR LAYER   2

         SPECIFIC STORAGE =  1.000000E-05 FOR LAYER   2

 QUASI3D VERT. HYD. COND. =  1.000000E-03 FOR LAYER   2

    HYD. COND. ALONG ROWS =   1.00000     FOR LAYER   3

  HORIZ. TO VERTICAL ANI. =   1.00000     FOR LAYER   3

         SPECIFIC STORAGE =  1.000000E-05 FOR LAYER   3

 QUASI3D VERT. HYD. COND. =  5.000000E-04 FOR LAYER   3

    HYD. COND. ALONG ROWS =  0.150000     FOR LAYER   4

  HORIZ. TO VERTICAL ANI. =   1.00000     FOR LAYER   4

         SPECIFIC STORAGE =  1.000000E-05 FOR LAYER   4

 GHB -- GENERAL-HEAD BOUNDARY PACKAGE, VERSION 7, 5/2/2005
         INPUT READ FROM UNIT   16
 No named parameters

 NO TABFILE SPECIFIED FOR PACKAGE GHB 

 MAXIMUM OF     92 ACTIVE GHB CELLS AT ONE TIME
 CELL-BY-CELL FLOWS WILL BE SAVED ON UNIT   70


     0 GHB parameters

 SFR7 -- STREAMFLOW ROUTING PACKAGE, VERSION 1.0.5, 2012-04-05
         INPUT READ FROM UNIT   14
 # Project 1 New Stream Aquifer Package
 No named parameters
 Segment information will not be 
 read by reach
 No named parameters

 NO TABFILE SPECIFIED FOR PACKAGE SFR 

 No specifed inflow files
 AUXILIARY STREAM FLOW ROUTING VARIABLE: LGRGRID         
 AUXILIARY STREAM FLOW ROUTING VARIABLE: LGRSEG          


 NUMBER OF STREAM REACHES IS  100

 NUMBER OF STREAM SEGMENTS IS   13

 NUMBER OF STREAM PARAMETERS IS    0

 NUMBER OF STREAM SEGMENTS DEFINED USING PARAMETERS IS              0

 MAXIMUM ERROR FOR STREAM LEAKAGE RATES IS  1.00E-04

 CONSTANT FOR MANNINGS EQUATION IS  8.6400E+04



 FLOW TO AND FROM GROUND WATER FOR EACH STREAM REACH WILL BE SAVED ON UNIT   70
 STREAM OUTPUT WILL BE WRITTEN TO FILE ON UNIT   69


   STREAM NETWORK DESCRIPTION: 

   LAYER    ROW    COL   SEGMENT   REACH     LENGTH
                          NUMBER   NUMBER    IN CELL        
   --------------------------------------------------
      1     13      1       1        1    5.0000E+02
      1     13      2       1        2    5.0000E+02
      1     13      3       1        3    2.5000E+02
      1     13      3       2        1    2.5000E+02
      1     12      3       2        2    5.0000E+02
      1     11      3       2        3    5.0000E+02
      1     10      3       2        4    5.0000E+02
      1      9      3       2        5    5.0000E+02
      1      8      3       2        6    5.0000E+02
      1      7      3       2        7    5.0000E+02
      1      6      3       2        8    5.0000E+02
      1      5      3       2        9    5.0000E+02
      1      4      3       2       10    5.0000E+02
      1      3      3       2       11    5.0000E+02
      1      3      4       2       12    5.0000E+02
      1      3      5       2       13    5.0000E+02
      1      3      6       2       14    5.0000E+02
      1      3      7       2       15    5.0000E+02
      1      3      8       2       16    5.0000E+02
      1      3      9       2       17    5.0000E+02
      1      3     10       2       18    5.0000E+02
      1      3     11       2       19    5.0000E+02
      1      3     12       2       20    5.0000E+02
      1      4     12       2       21    5.0000E+02
      1      5     12       2       22    5.0000E+02
      1      6     12       2       23    5.0000E+02
      1      7     12       2       24    5.0000E+02
      1      8     12       2       25    5.0000E+02
      1      9     12       2       26    5.0000E+02
      1     10     12       2       27    2.5000E+02
      1     10      7       3        1    2.5000E+02
      1     10      8       3        2    5.0000E+02
      1     10      9       3        3    5.0000E+02
      1     10     12       4        1    2.5000E+02
      1     11     12       4        2    5.0000E+02
      1     12     12       4        3    5.0000E+02
      1     13     12       4        4    2.5000E+02
      1     13      3       5        1    2.5000E+02
      1     13      4       5        2    5.0000E+02
      1     13      5       5        3    2.5000E+02
      1     13      5       6        1    2.5000E+02
      1     14      5       6        2    5.0000E+02
      1     15      5       6        3    5.0000E+02
      1     16      5       6        4    5.0000E+02
      1     17      5       6        5    5.0000E+02
      1     18      5       6        6    5.0000E+02
      1     19      5       6        7    5.0000E+02
      1     20      5       6        8    5.0000E+02
      1     20      6       6        9    5.0000E+02
      1     20      7       6       10    5.0000E+02
      1     20      8       6       11    5.0000E+02
      1     20      9       6       12    5.0000E+02
      1     20     10       6       13    5.0000E+02
      1     20     11       6       14    5.0000E+02
      1     20     12       6       15    5.0000E+02
      1     20     13       6       16    5.0000E+02
      1     20     14       6       17    5.0000E+02
      1     20     15       6       18    5.0000E+02
      1     20     16       6       19    5.0000E+02
      1     20     17       6       20    5.0000E+02
      1     19     17       6       21    5.0000E+02
      1     18     17       6       22    5.0000E+02
      1     17     17       6       23    5.0000E+02
      1     16     17       6       24    2.5000E+02
      1     16      7       7        1    2.5000E+02
      1     16      8       7        2    5.0000E+02
      1     16      9       7        3    5.0000E+02
      1     16     10       7        4    5.0000E+02
      1     16     11       7        5    5.0000E+02
      1     16     12       7        6    5.0000E+02
      1     16     13       7        7    5.0000E+02
      1     16     14       7        8    5.0000E+02
      1     16     15       7        9    5.0000E+02
      1     16     16       7       10    5.0000E+02
      1     16     17       7       11    2.5000E+02
      1     16     17       8        1    2.5000E+02
      1     15     17       8        2    5.0000E+02
      1     14     17       8        3    5.0000E+02
      1     13     17       8        4    2.5000E+02
      1     13      5       9        1    2.5000E+02
      1     13      6       9        2    5.0000E+02
      1     13      7       9        3    5.0000E+02
      1     13      8       9        4    5.0000E+02
      1     13      9       9        5    5.0000E+02
      1     13     10       9        6    5.0000E+02
      1     13     11       9        7    5.0000E+02
      1     13     12       9        8    2.5000E+02
      1     13     12      10        1    2.5000E+02
      1     13     13      10        2    5.0000E+02
      1     13     14      10        3    5.0000E+02
      1     13     15      10        4    5.0000E+02
      1     13     16      10        5    5.0000E+02
      1     13     17      10        6    2.5000E+02
      1     13     17      11        1    2.5000E+02
      1     13     18      11        2    5.0000E+02
      1     13     19      11        3    5.0000E+02
      1     13     20      11        4    5.0000E+02
      1     10     10      12        1    5.0000E+02
      1     10     11      12        2    5.0000E+02
      1     10     12      13        1    2.5000E+02




 PCG -- CONJUGATE-GRADIENT SOLUTION PACKAGE, VERSION 7, 5/2/2005
 MAXIMUM OF    100 CALLS OF SOLUTION ROUTINE
 MAXIMUM OF    100 INTERNAL ITERATIONS PER CALL TO SOLUTION ROUTINE
 MATRIX PRECONDITIONING TYPE :    1



                                    SOLUTION BY THE CONJUGATE-GRADIENT METHOD
                                   -------------------------------------------
                    MAXIMUM NUMBER OF CALLS TO PCG ROUTINE =      100
                        MAXIMUM ITERATIONS PER CALL TO PCG =      100
                               MATRIX PRECONDITIONING TYPE =        1
        RELAXATION FACTOR (ONLY USED WITH PRECOND. TYPE 1) =    0.10000E+01
 PARAMETER OF POLYNOMIAL PRECOND. = 2 (2) OR IS CALCULATED :        2
                         HEAD CHANGE CRITERION FOR CLOSURE =    0.10000E-03
                     RESIDUAL CHANGE CRITERION FOR CLOSURE =    0.10000E+00
            PCG HEAD AND RESIDUAL CHANGE PRINTOUT INTERVAL =        1
     PRINTING FROM SOLVER IS LIMITED(1) OR SUPPRESSED (>1) =        1
                            STEADY-STATE DAMPING PARAMETER =    0.10000E+01
                               TRANSIENT DAMPING PARAMETER =    0.10000E+01

 MNW1 -- MULTI-NODE WELL 1 PACKAGE, VERSION 7, 04/05/2012.
    INPUT READ FROM UNIT  15
 MAXIMUM OF     18 WELLS
 CELL-BY-CELL FLOWS WILL BE RECORDED ON UNIT 70
  The heads at the beginning of SP:   1 will be the default reference elevations.

 Flow rates will not be estimated after the 9999th iteration

  A WEL1   data input file will be written to t.wl1 on unit   91                

  A BYNODE data input file will be written to t.ByNode on unit   92             

  A QSUM   data input file will be written to t.Qsum on unit   93               


 FMP3 -- FARM PROCESS, VERSION 3.0, 06/15/1998 03:36:54
 INPUT READ FROM UNIT
 # FMP2 Example Model -- ZERO SCENARIO / EQUAL APPROPRATION
               1 Named Parameters                  15 List entries

 DIMENSIONS:
   MAXIMUM OF     30 FARM WELLS
   MAXIMUM OF        8 FARMS
   TOTAL OF        3 SOIL-TYPES
   TOTAL OF        6 CROP-TYPES

 WHEN TO READ SETTINGS:
   ROOT ZONE DEPTHS ............................  SPECIFIED FOR EACH STRESS PERIOD
   CROP COEFFICIENTS ...........................  AND
   REFERENCE EVAPOTRANSPIRATION FLUX ...........  SPECIFIED FOR EACH STRESS PERIOD
   PRECIPITATION FLUX ..........................  SPECIFIED FOR EACH STRESS PERIOD
   FRACTIONS OF TRANS. & EVAP. OF CONSUMPTIVE USE SPECIFIED FOR EACH STRESS PERIOD
   FRACTIONS OF IN-EFFICIENT LOSSES TO SW-RUNOFF  SPECIFIED FOR EACH STRESS PERIOD
   ON-FARM EFFICIENCIES ........................  SPECIFIED FOR EACH STRESS PERIOD
   WATER-BALANCE SUBREGIONS (FARMS).............  SPECIFIED FOR THE ENTIRE SIMULATION

 WATER POLICY SETTINGS:
   EFFICIENCY BEHAVIOR: CONSERVATIVE BEHAVIOR: CONSTANT EFFICIENCY OVER A TIME STEP
                        EFFICIENCY DOES NOT VARY WITH CHANGING GROUNDWATER LEVEL, BUT
                        DELIVERY MAY VARY WITH CHANGING GROUNDWATER LEVEL
                        EFF. RESET TO SPEC. EFF. AT BEG. OF EACH TIME STEP
   NO DEFICIENCY SCENARIO APPLIED (ZERO SCENARIO)
     ASSUMPTION FOR DEFICIENCY CASE: SUPPLY = DEMAND, I.E.
     SUPPLY SUFFICIENTLY SUPPLEMENTED FROM OUTSIDE MODELING DOMAIN
   NO NON-IRRIGATION-SEASON HAS BEEN SELECTED
   NO GROUNDWATER ALLOTMENTS (Volumetric Rate) HAVE BEEN SELECTED -- Maximum Groundwater Delivery limited by Total Capacity of all Farm wells per Farm per Stress Period

 CONSUMPTIVE USE CONCEPT 1: Tgw-act-max < Tc-act-max < Tpot
   (REDUCTION OF ACTUAL TRANSPIRATION ~ RED. OF ROOT ZONE BY ZONES OF WILTING & ANOXIA
    APPROXIMATED BY CROP- & SOIL-TYPE SPECIFIC ANALYTICAL SOLUTION)

 SURFACE-WATER SETTINGS (SUPPLY / RETURNFLOW / RIGHTS:
   FARM DELIVERY REQUIREMENT SUPPLIED BY:
     NON-ROUTED SURFACE-WATER DELIVERIES (FIRST PRIORITY).
     MAXIMUM NUMBER OF NON-ROUTED DELIVERY TYPES =    1
   FARM DELIVERY REQUIREMENT SUPPLIED BY:
     SEMI-ROUTED SURFACE-WATER DELIVERIES (SECOND PRIORITY).
   DIVERSION REACHES FOR SEMI-ROUTED DELIVERIES.  SPECIFIED FOR THE ENTIRE SIMULATION
   NO ROUTED SURFACE-WATER DELIVERY EXISTS
   FARM RUNOFF RETURNED TO STREAM-NETWORK BY:
     SEMI-ROUTED SURFACE-WATER RETURNFLOW
     (NON-ROUTED TO & ROUTED FROM SPECIFIED REACH THAT IS OUTSIDE THE FARM)
   REACHES RECEIVING SEMI-ROUTED RETURNFLOW ....  SPECIFIED FOR THE ENTIRE SIMULATION
   FARM RUNOFF RETURNED TO STREAM-NETWORK BY:
     FULLY ROUTED SURFACE-WATER RETURNFLOW
     FROM FARMS WITHOUT SPECIFIED SEMI-ROUTED RETURNFLOW LOCATIONS
     TO ALL REACHES OF ANY STREAM SEGMENT LOCATED WITHIN EACH FARM
   EQUAL APPROPRIATION SW ALLOTMENT HEIGHT SELECTED

 PRINT SETTINGS:
   FARM WELL FLOW RATES:
     A LIST (FARM-WELL ID, FARM ID, LAY, ROW, COL, RATE) IS SAVED 
     ON ASCII FILE "FWELLS.OUT" FOR ALL TIME STEPS
   FARM NET RECHARGE FLOW RATES:
     A 2D INTEGER-ARRAY OF EACH CELLS UPPERMOST ACTIVE LAYER, AND
     A 2D REAL-ARRAY OF EACH CELLS NET RECHARGE RATE 
     WILL BE SAVED AS BINARY FILE ON UNIT   70 FOR TIME STEPS, FOR WHICH IN OUTPUT CONTOL
     "SAVE BUDGET" IS SPECIFIED (USING WORDS), OR ICBCFL IS NOT 0 (USING NUMERIC CODES)
   FARM DEMAND & SUPPLY FLOW RATES:
     A LIST OF INITIAL DEMAND & SUPPLY FLOW RATES, AND OF
     FINAL DEMAND AND SUPPLY FLOW RATES AFTER THE APPLICATION OF A DEFICIENCY SCENARIO
     WILL BE SAVED ON ASCII-FILE "FDS.OUT" FOR ALL TIME STEPS.  LIST =
     (PER,TSTP,TIME,FID,OFE,
      TFDR-INI,NR-SWD-INI,R-SWD-INI,QREQ,TFDR-FIN,NR-SWD-FIN,R-SWD-FIN,QREQ,Q,DEF-FLAG)
     (<-- BEFORE DEFICIENCY SCENARIO --> <--       AFTER DEFICIENCY SCENARIO       -->)
   DETAILED FARM BUDGET:
     A LIST OF VOLUMETRIC FLOW RATES FOR ANY TIME STEP [L^3/T], AND OF CUMULATIVE VOLUMES [L^3] 
     WILL BE SAVED ON ASCII-FILE "FB_DETAILS.OUT" FOR ALL TIME STEPS.
      LIST = (PER,TSTP,TIME,FID;
      RATES INTO FARM: Q-p-in, Q-nrd-in, Q-srd-in, Q-rd-in, Q-wells-in, Q-egw-in, Q-tgw-in, Q-ext-in, Q-tot-in,
      RATES OUT OF FARM: Q-ei-out, Q-ep-out, Q-egw-out, Q-ti-out, Q-tp-out, Q-tgw-out Q-run-out, Q-dp-out, Q-nrd-out, Q-srd-out, Q-rd-out, Q-wells-out, Q-tot-out,
      RATE BUDGET ERROR: Q-in-minus-out, Q-Discrepancy [%];
      CUMULATIVE VOLUMES INTO FARM: V-p-in, V-nrd-in, V-srd-in, V-rd-in, V-wells-in, V-egw-in, V-tgw-in, V-ext-in, V-tot-in,
      CUMULATIVE VOLUMES OUT OF FARM: V-ei-out, V-ep-out, V-egw-out, V-ti-out, V-tp-out, V-tgw-out V-run-out, V-dp-out, V-nrd-out, V-srd-out, V-rd-out, V-wells-out, V-tot-out,
      VOLUMETRIC BUDGET ERROR: Q-in-minus-out, Q-Discrepancy [%])
   ROUTING INFOMATION:
     WRITTEN TO ASCII FILE "ROUT.OUT" FOR FIRST STRESS PERIOD ONLY
 
 AUXILIARY FARM WELL PARAMETER: QMAXRESET       


     1 Farm Well parameters

 PARAMETER NAME:WELLS1       TYPE:QMAX
 Parameter value from package file is:    1000.0    
   NUMBER OF ENTRIES:     15

 OPENING FILE ON UNIT   99:
 ./DATA_FMP/WELLS.in                                                                                                                                                                                                                                                                                                                                                                                                                                                                                                                                                                                                                                                                                                         

 WELL NO. LAYER    ROW    COL  F-WELL ID    FARM ID      QMAXfac         QMAXRESET       
 ----------------------------------------------------------------------------------------
       1      1      5      6          1          1      5.0000E+00              0
       2      1      8      7          2          1      5.0000E+00              0
       3      1      8      9          3          1      5.0000E+00              0
       4      1      5      9          4          2      3.0000E+00              0
       5      1      6     10          5          2      2.0000E+00              0
       6      1      7     11          6          2      1.0000E+00              0
       7      1     18      3          7          3      2.0000E+00              0
       8      1     21      3          8          3      4.0000E+00              0
       9      1     18     19          9          4      3.0000E+00              0
      10      1     21     19         10          4      5.0000E+00              0
      11      0      6      2        -11          5      5.0000E+00              1
      12      0      8      2        -12          5      5.0000E+00              1
      13      0     10      2        -13          5      5.0000E+00              1
      14      0      3     19        -14          6      1.0000E+01              1
      15      0      6     17        -15          6      6.0000E+00              1

 OPENING FILE ON UNIT   99:
 ./DATA_FMP/GSE.in                                                                                                                                                                                                                                                                                                                                                                                                                                                                                                                                                                                                                                                                                                           



                     GROUND SURFACE
 READING ON UNIT   99 WITH FORMAT: (FREE)              

 OPENING FILE ON UNIT   99:
 ./DATA_FMP/FID.in                                                                                                                                                                                                                                                                                                                                                                                                                                                                                                                                                                                                                                                                                                           



                FARM IDENTIFICATION
 READING ON UNIT   99 WITH FORMAT: (FREE)              

 OPENING FILE ON UNIT   99:
 ./DATA_FMP/SID.in                                                                                                                                                                                                                                                                                                                                                                                                                                                                                                                                                                                                                                                                                                           



           SOIL TYPE IDENTIFICATION
 READING ON UNIT   99 WITH FORMAT: (FREE)              

 OPENING FILE ON UNIT   99:
 ./DATA_FMP/SOILLIST.in                                                                                                                                                                                                                                                                                                                                                                                                                                                                                                                                                                                                                                                                                                      

 OPENING FILE ON UNIT   99:
 ./DATA_FMP/CID.in                                                                                                                                                                                                                                                                                                                                                                                                                                                                                                                                                                                                                                                                                                           



                CROP IDENTIFICATION
 READING ON UNIT   99 WITH FORMAT: (FREE)              

 OPENING FILE WITH FILENAME: ./DATA_FMP/PSI.in
 AND UNIT NUMBER: -133

 OPENING FILE ON UNIT   99:
 ./DATA_FMP/SRD.in                                                                                                                                                                                                                                                                                                                                                                                                                                                                                                                                                                                                                                                                                                           

 SEMI-ROUTED DELIVERIES TO FARMS (LOCATION OF DIVERSION-POINT):
 FARM-ID    ROW    COLUMN   SEGMENT     REACH
       1      3         5         2        13
       2      3         8         2        16
       3     17         5         6         5
       4     20        12         6        15
       5      0         0         0         0
       6     13        15        10         4
       7      0         0         0         0
       8      0         0         0         0

 OPENING FILE ON UNIT   99:
 ./DATA_FMP/SRR.in                                                                                                                                                                                                                                                                                                                                                                                                                                                                                                                                                                                                                                                                                                           

 SEMI-ROUTED RUNOFF-RETURNFLOW FROM FARMS (LOCATION WHERE RUNOFF ENTERS A STREAM REACH):
 FARM-ID    ROW    COLUMN   SEGMENT     REACH
       1      0         0         0         0
       2      0         0         0         0
       3      0         0         0         0
       4      0         0         0         0
       5      0         0         0         0
       6      0         0         0         0
       7      0         0         0         0
       8      0         0         0         0
1
                            STRESS PERIOD NO.      1, LENGTH =   30.42000    
                            -----------------------------------------------

                              NUMBER OF TIME STEPS =     2

                               MULTIPLIER FOR DELT =     1.000

                            INITIAL TIME STEP SIZE =   15.21000    

PARAMETERS HAVE BEEN USED IN PACKAGES
THE CURRENT STORAGE FOR PARAMETERS IS: 
# PARAMETER=         1 WITH MAX STORAGE (MXPAR)  OF      2000
# INSTANCES=         0 WITH MAX STORAGE (MXINST) OF     50000
# CLUSTERS =         0 WITH MAX STORAGE (MXCLST) OF   2000000
YOU CAN INCREASE/DECREASE STORAGE WITH BAS OPTION:
MAXPARAM  MXPAR  MXCLST MXINST

 GHB PACKAGE STRESS PERIOD INFORMATION [BEFORE APPLICATION OF TABFILES]

 BOUND. NO. LAYER   ROW   COL     BHEAD      CONDUCTANCE  AUX                        
 ------------------------------------------------------------------------------------
      1      1      1      1       296.2           39.00    
      2      1      2      1       296.2           39.00    
      3      1      3      1       296.2           39.00    
      4      1      4      1       296.2           39.00    
      5      1      5      1       296.2           39.00    
      6      1      6      1       296.2           39.00    
      7      1      7      1       296.2           39.00    
      8      1      8      1       296.2           39.00    
      9      1      9      1       296.2           39.00    
     10      1     10      1       296.2           39.00    
     11      1     11      1       296.2           39.00    
     12      1     12      1       296.2           39.00    
     13      1     13      1       296.2           39.00    
     14      1     14      1       296.2           39.00    
     15      1     15      1       296.2           39.00    
     16      1     16      1       296.2           39.00    
     17      1     17      1       296.2           39.00    
     18      1     18      1       296.2           39.00    
     19      1     19      1       296.2           39.00    
     20      1     20      1       296.2           39.00    
     21      1     21      1       296.2           39.00    
     22      1     22      1       296.2           39.00    
     23      1     23      1       296.2           39.00    
     24      1      1     20       254.0           32.42    
     25      1      2     20       254.0           32.42    
     26      1      3     20       254.0           32.42    
     27      1      4     20       254.0           32.42    
     28      1      5     20       254.0           32.42    
     29      1      6     20       254.0           32.42    
     30      1      7     20       254.0           32.42    
     31      1      8     20       254.0           32.42    
     32      1      9     20       254.0           32.42    
     33      1     10     20       254.0           32.42    
     34      1     11     20       254.0           32.42    
     35      1     12     20       254.0           32.42    
     36      1     13     20       254.0           32.42    
     37      1     14     20       254.0           32.42    
     38      1     15     20       254.0           32.42    
     39      1     16     20       254.0           32.42    
     40      1     17     20       254.0           32.42    
     41      1     18     20       254.0           32.42    
     42      1     19     20       254.0           32.42    
     43      1     20     20       254.0           32.42    
     44      1     21     20       254.0           32.42    
     45      1     22     20       254.0           32.42    
     46      1     23     20       254.0           32.42    
     47      2      1      1       284.2           4.500    
     48      2      2      1       284.2           4.500    
     49      2      3      1       284.2           4.500    
     50      2      4      1       284.2           4.500    
     51      2      5      1       284.2           4.500    
     52      2      6      1       284.2           4.500    
     53      2      7      1       284.2           4.500    
     54      2      8      1       284.2           4.500    
     55      2      9      1       284.2           4.500    
     56      2     10      1       284.2           4.500    
     57      2     11      1       284.2           4.500    
     58      2     12      1       284.2           4.500    
     59      2     13      1       284.2           4.500    
     60      2     14      1       284.2           4.500    
     61      2     15      1       284.2           4.500    
     62      2     16      1       284.2           4.500    
     63      2     17      1       284.2           4.500    
     64      2     18      1       284.2           4.500    
     65      2     19      1       284.2           4.500    
     66      2     20      1       284.2           4.500    
     67      2     21      1       284.2           4.500    
     68      2     22      1       284.2           4.500    
     69      2     23      1       284.2           4.500    
     70      2      1     20       283.7           4.500    
     71      2      2     20       283.7           4.500    
     72      2      3     20       283.7           4.500    
     73      2      4     20       283.7           4.500    
     74      2      5     20       283.7           4.500    
     75      2      6     20       283.7           4.500    
     76      2      7     20       283.7           4.500    
     77      2      8     20       283.7           4.500    
     78      2      9     20       283.7           4.500    
     79      2     10     20       283.7           4.500    
     80      2     11     20       283.7           4.500    
     81      2     12     20       283.7           4.500    
     82      2     13     20       283.7           4.500    
     83      2     14     20       283.7           4.500    
     84      2     15     20       283.7           4.500    
     85      2     16     20       283.7           4.500    
     86      2     17     20       283.7           4.500    
     87      2     18     20       283.7           4.500    
     88      2     19     20       283.7           4.500    
     89      2     20     20       283.7           4.500    
     90      2     21     20       283.7           4.500    
     91      2     22     20       283.7           4.500    
     92      2     23     20       283.7           4.500    

     92 GHB CELLS



 CLASSIFICATION & COUNT OF STREAM SEGMENTS BASED ON SOURCE OF INFLOW:

                HEADWATER     DIVERSION     RECEIVES TRIBUTARY FLOW
                ---------     ---------     -----------------------
                     3              2               8




 SLOPE FOR SEGMENT AND REACH      2     1IS LESS THAN 1.0E-07: SETTING SLOPE TO 1.0E-06  1.0000E-06
 SLOPE FOR SEGMENT AND REACH      2     2IS LESS THAN 1.0E-07: SETTING SLOPE TO 1.0E-06  1.0000E-06
 SLOPE FOR SEGMENT AND REACH      2     3IS LESS THAN 1.0E-07: SETTING SLOPE TO 1.0E-06  1.0000E-06
 SLOPE FOR SEGMENT AND REACH      2     4IS LESS THAN 1.0E-07: SETTING SLOPE TO 1.0E-06  1.0000E-06
 SLOPE FOR SEGMENT AND REACH      2     5IS LESS THAN 1.0E-07: SETTING SLOPE TO 1.0E-06  1.0000E-06
 SLOPE FOR SEGMENT AND REACH      2     6IS LESS THAN 1.0E-07: SETTING SLOPE TO 1.0E-06  1.0000E-06
 SLOPE FOR SEGMENT AND REACH      2     7IS LESS THAN 1.0E-07: SETTING SLOPE TO 1.0E-06  1.0000E-06
 SLOPE FOR SEGMENT AND REACH      2     8IS LESS THAN 1.0E-07: SETTING SLOPE TO 1.0E-06  1.0000E-06
 SLOPE FOR SEGMENT AND REACH      2     9IS LESS THAN 1.0E-07: SETTING SLOPE TO 1.0E-06  1.0000E-06
 SLOPE FOR SEGMENT AND REACH      2    10IS LESS THAN 1.0E-07: SETTING SLOPE TO 1.0E-06  1.0000E-06
 SLOPE FOR SEGMENT AND REACH      6     1IS LESS THAN 1.0E-07: SETTING SLOPE TO 1.0E-06  1.0000E-06
 SLOPE FOR SEGMENT AND REACH      6     2IS LESS THAN 1.0E-07: SETTING SLOPE TO 1.0E-06  1.0000E-06
 SLOPE FOR SEGMENT AND REACH      6     3IS LESS THAN 1.0E-07: SETTING SLOPE TO 1.0E-06  1.0000E-06
 SLOPE FOR SEGMENT AND REACH      6     4IS LESS THAN 1.0E-07: SETTING SLOPE TO 1.0E-06  1.0000E-06
 SLOPE FOR SEGMENT AND REACH      6     5IS LESS THAN 1.0E-07: SETTING SLOPE TO 1.0E-06  1.0000E-06
 SLOPE FOR SEGMENT AND REACH      6     6IS LESS THAN 1.0E-07: SETTING SLOPE TO 1.0E-06  1.0000E-06
 SLOPE FOR SEGMENT AND REACH      6     7IS LESS THAN 1.0E-07: SETTING SLOPE TO 1.0E-06  1.0000E-06




             18 MNW WELLS
    No.   Lay   Row   Col    Stress   QW param      Rw       Skin    WL Limit    WL Refer   NonLinear Cp  QW Group  Cell-To-Well  Min-Qoff  Min-Qon  Site Identifier
      1     1     6     2  0.000     -1.000     0.1000      1.000      205.0      291.8      0.00000             1  690.162         0.000     0.000  NO-PRINT                        
      2     2     6     2  0.000     -1.000     0.1000      1.000      205.0      291.8      0.00000             2  71.6019         0.000     0.000  NO-PRINT                        
      3     3     6     2  0.000     -1.000     0.1000      1.000      205.0      291.8      0.00000             3  47.7346         0.000     0.000  NO-PRINT                        
      4     4     6     2  0.000     -1.000     0.1000      1.000      205.0      291.8      0.00000             4  7.16019         0.000     0.000  NO-PRINT                        
      5     1     8     2  0.000     -1.000     0.1000      1.000      205.0      292.0      0.00000             5  691.833         0.000     0.000  NO-PRINT                        
      6     2     8     2  0.000     -1.000     0.1000      1.000      205.0      292.0      0.00000             6  71.6019         0.000     0.000  NO-PRINT                        
      7     3     8     2  0.000     -1.000     0.1000      1.000      205.0      292.0      0.00000             7  47.7346         0.000     0.000  NO-PRINT                        
      8     4     8     2  0.000     -1.000     0.1000      1.000      205.0      292.0      0.00000             8  7.16019         0.000     0.000  NO-PRINT                        
      9     1    10     2  0.000     -1.000     0.1000      1.000      205.0      292.3      0.00000             9  694.618         0.000     0.000  NO-PRINT                        
     10     2    10     2  0.000     -1.000     0.1000      1.000      205.0      292.3      0.00000            10  71.6019         0.000     0.000  NO-PRINT                        
     11     3    10     2  0.000     -1.000     0.1000      1.000      205.0      292.3      0.00000            11  47.7346         0.000     0.000  NO-PRINT                        
     12     4    10     2  0.000     -1.000     0.1000      1.000      205.0      292.3      0.00000            12  7.16019         0.000     0.000  NO-PRINT                        
     13     2     3    19  0.000     -1.000     0.1000      1.000      205.0      280.3      0.00000            13  71.6019         0.000     0.000  NO-PRINT                        
     14     3     3    19  0.000     -1.000     0.1000      1.000      205.0      280.3      0.00000            14  47.7346         0.000     0.000  NO-PRINT                        
     15     4     3    19  0.000     -1.000     0.1000      1.000      205.0      280.3      0.00000            15  7.16019         0.000     0.000  NO-PRINT                        
     16     2     6    17  0.000     -1.000     0.1000      1.000      205.0      281.8      0.00000            16  71.6019         0.000     0.000  NO-PRINT                        
     17     3     6    17  0.000     -1.000     0.1000      1.000      205.0      281.8      0.00000            17  47.7346         0.000     0.000  NO-PRINT                        
     18     4     6    17  0.000     -1.000     0.1000      1.000      205.0      281.8      0.00000            18  7.16019         0.000     0.000  NO-PRINT                        

 OPENING FILE ON UNIT   99:
 ./DATA_FMP/WELLS.in                                                                                                                                                                                                                                                                                                                                                                                                                                                                                                                                                                                                                                                                                                         

 WELL NO. LAYER    ROW    COL  F-WELL ID    FARM ID         QMAX         QMAXRESET       
 ----------------------------------------------------------------------------------------
       1      1      5      6          1          1      5.0000E+00              0
       2      1      8      7          2          1      5.0000E+00              0
       3      1      8      9          3          1      5.0000E+00              0
       4      1      5      9          4          2      3.0000E+00              0
       5      1      6     10          5          2      2.0000E+00              0
       6      1      7     11          6          2      1.0000E+00              0
       7      1     18      3          7          3      2.0000E+00              0
       8      1     21      3          8          3      4.0000E+00              0
       9      1     18     19          9          4      3.0000E+00              0
      10      1     21     19         10          4      5.0000E+00              0
      11      0      6      2        -11          5      5.0000E+00              1
      12      0      8      2        -12          5      5.0000E+00              1
      13      0     10      2        -13          5      5.0000E+00              1
      14      0      3     19        -14          6      1.0000E+01              1
      15      0      6     17        -15          6      6.0000E+00              1

 Parameter:  WELLS1
 WELL NO. LAYER    ROW    COL  F-WELL ID    FARM ID         QMAX         QMAXRESET       
 ----------------------------------------------------------------------------------------
      16      1      5      6          1          1      5.0000E+03              0
      17      1      8      7          2          1      5.0000E+03              0
      18      1      8      9          3          1      5.0000E+03              0
      19      1      5      9          4          2      3.0000E+03              0
      20      1      6     10          5          2      2.0000E+03              0
      21      1      7     11          6          2      1.0000E+03              0
      22      1     18      3          7          3      2.0000E+03              0
      23      1     21      3          8          3      4.0000E+03              0
      24      1     18     19          9          4      3.0000E+03              0
      25      1     21     19         10          4      5.0000E+03              0
      26      0      6      2        -11          5      5.0000E+03              1
      27      0      8      2        -12          5      5.0000E+03              1
      28      0     10      2        -13          5      5.0000E+03              1
      29      0      3     19        -14          6      1.0000E+04              1
      30      0      6     17        -15          6      6.0000E+03              1

 NUMBER OF ACTIVE FARM WELLS:       30

 FARM-ID  NUMBER OF WELLS PER FARM  TOTAL MAX.CAPACITY PER FARM
       1                         6                   15015.0000
       2                         6                    6006.0000
       3                         4                    6006.0000
       4                         4                    8008.0000
       5                         6                   15015.0000
       6                         4                   16016.0000
       7                         0                       0.0000
       8                         0                       0.0000

 READING LIST ON UNIT   20 WITH FILE NAME: C:\MF_OWHM_Release_Package\MF_OWHM_v1_0\examples\test-run-owhm-lgr\fmp-lgr-lpf\DATA_FMP\OFE.in
 LIST SCALING FACTOR= 0.60000    
 (THE SCALE FACTOR WAS APPLIED TO FIELDS   2 -   7)

 Reading list on unit   30

 Reading list on unit   40

  REF. EVAPOTRANSPIRATION =  9.100000E-04

 READING LIST ON UNIT   50 WITH FILE NAME: C:\MF_OWHM_Release_Package\MF_OWHM_v1_0\examples\test-run-owhm-lgr\fmp-lgr-lpf\DATA_FMP\FTE.in

Transpiratory and Evaporative Fractions of Crop Consumptive Use
    % Transpiration % Evap. for Precip. % Evap. for Irrig.
    1          0.000          1.000          0.500
    2          0.822          0.178          0.158
    3          0.957          0.043          0.043
    4          0.125          0.875          0.875
    5          0.777          0.223          0.000
    6          0.200          0.800          0.000

 READING LIST ON UNIT   60 WITH FILE NAME: C:\MF_OWHM_Release_Package\MF_OWHM_v1_0\examples\test-run-owhm-lgr\fmp-lgr-lpf\DATA_FMP\INEFFSW.in

FRACTIONS OF IN-EFFICIENT LOSSES TO SW-RUNOFF FROM 
     PRECIPITATION:  IRRIGATION:
    1          0.500          0.600
    2          0.400          0.300
    3          0.600          0.500
    4          0.700          0.600
    5          0.840          0.000
    6          0.740          0.000

       PRECIPITATION FLUX =  2.070000E-03

 OPENING FILE WITH FILENAME: ./DATA_FMP/NRDV.in
 AND UNIT NUMBER: -144
 READING SCALE FACTOR LIST ON UNIT   80 ASSOCIATED WITH FILE: C:\MF_OWHM_Release_Package\MF_OWHM_v1_0\examples\test-run-owhm-lgr\fmp-lgr-lpf\DATA_FMP\NRDV.in
 FIELD     SCALE FACTOR
     1       1.0000    
     2       1.0000    
     3       1.0000    
     4       1.0000    

UNRANKED LIST OF NON-ROUTED DELIVERIES TO FARMS [L3]:
TYPE:             1

FARM-ID  VOLUME:
      1   1.500E+04
      2   1.500E+04
      3   2.000E+04
      4   1.000E+04
      5   1.000E+04
      6   2.000E+04
      7   0.000E+00
      8   0.000E+00

FARM-ID  PRIORITY RANK OF NRD-TYPE:
      1           1
      2           1
      3           1
      4           1
      5           1
      6           1
      7           1
      8           1

FARM-ID  USE-FLAG:
         0 = SUFFICIENT USE
         1 = ABSOLUTE USE (RECHARGE SURPLUS BACK INTO CANAL)
         2 = ABSOLUTE USE (INJECT SURPLUS INTO FARM-WELLS)
      1           0
      2           0
      3           0
      4           0
      5           0
      6           0
      7           0
      8           0

LIST OF NON-ROUTED DELIVERIES IN RANKED SEQUENCE [L3/T]:

FARM-ID  RATE:
      1   0.000E+00
      2   0.000E+00
      3   6.575E+02
      4   3.287E+02
      5   3.287E+02
      6   6.575E+02
      7   0.000E+00
      8   0.000E+00

FARM-ID  USE-FLAG:
         0 = SUFFICIENT USE
         1 = ABSOLUTE USE (RECHARGE SURPLUS BACK INTO CANAL)
         2 = ABSOLUTE USE (INJECT SURPLUS INTO FARM-WELLS)
      1           0
      2           0
      3           0
      4           0
      5           0
      6           0
      7           0
      8           0

SURFACE-WATER FARM ALLOTMENT HEIGHT [L]:   0.000
 
 SOLVING FOR HEAD 


     6 CALLS TO PCG ROUTINE FOR TIME STEP   1 IN STRESS PERIOD    1
    33 TOTAL ITERATIONS


     4 CALLS TO PCG ROUTINE FOR TIME STEP   1 IN STRESS PERIOD    1
    15 TOTAL ITERATIONS


     3 CALLS TO PCG ROUTINE FOR TIME STEP   1 IN STRESS PERIOD    1
     9 TOTAL ITERATIONS


     3 CALLS TO PCG ROUTINE FOR TIME STEP   1 IN STRESS PERIOD    1
     8 TOTAL ITERATIONS


     3 CALLS TO PCG ROUTINE FOR TIME STEP   1 IN STRESS PERIOD    1
     8 TOTAL ITERATIONS


     2 CALLS TO PCG ROUTINE FOR TIME STEP   1 IN STRESS PERIOD    1
     5 TOTAL ITERATIONS


     2 CALLS TO PCG ROUTINE FOR TIME STEP   1 IN STRESS PERIOD    1
     5 TOTAL ITERATIONS


     2 CALLS TO PCG ROUTINE FOR TIME STEP   1 IN STRESS PERIOD    1
     5 TOTAL ITERATIONS


     2 CALLS TO PCG ROUTINE FOR TIME STEP   1 IN STRESS PERIOD    1
     4 TOTAL ITERATIONS


     2 CALLS TO PCG ROUTINE FOR TIME STEP   1 IN STRESS PERIOD    1
     4 TOTAL ITERATIONS


     2 CALLS TO PCG ROUTINE FOR TIME STEP   1 IN STRESS PERIOD    1
     3 TOTAL ITERATIONS

 OUTPUT CONTROL FOR STRESS PERIOD      1   TIME STEP     1
    PRINT BUDGET
    SAVE BUDGET
 UBDSV1 SAVING "         STORAGE" ON UNIT  70 AT TIME STEP    1, STRESS PERIOD   1
 UBDSV2 SAVING "   CONSTANT HEAD" ON UNIT  70 AT TIME STEP    1, STRESS PERIOD   1
 UBDSV1 SAVING "FLOW RIGHT FACE " ON UNIT  70 AT TIME STEP    1, STRESS PERIOD   1
 UBDSV1 SAVING "FLOW FRONT FACE " ON UNIT  70 AT TIME STEP    1, STRESS PERIOD   1
 UBDSV1 SAVING "FLOW LOWER FACE " ON UNIT  70 AT TIME STEP    1, STRESS PERIOD   1
 UBDSV4 SAVING " HEAD DEP BOUNDS" ON UNIT  70 AT TIME STEP    1, STRESS PERIOD   1
 UBDSV4 SAVING "  STREAM LEAKAGE" ON UNIT  70 AT TIME STEP    1, STRESS PERIOD   1



 UBDSV4 SAVING "             MNW" ON UNIT  70 AT TIME STEP    1, STRESS PERIOD   1
 UBDSV3 SAVING "FARM  NET  RECH." ON UNIT  70 AT TIME STEP    1, STRESS PERIOD   1
 UBDSV4 SAVING " GHOST-NODE FLUX" ON UNIT  70 AT TIME STEP    1, STRESS PERIOD   1
 UBDSV4 SAVING " GHOST-NODE FLUX" ON UNIT  70 AT TIME STEP    1, STRESS PERIOD   1
 UBDSV4 SAVING " GHOST-NODE FLUX" ON UNIT  70 AT TIME STEP    1, STRESS PERIOD   1
1
  VOLUMETRIC BUDGET FOR ENTIRE MODEL AT END OF TIME STEP    1 IN STRESS PERIOD      1
  ------------------------------------------------------------------------------

     CUMULATIVE VOLUMES      L**3       RATES FOR THIS TIME STEP      L**3/T
     ------------------                 ------------------------

           IN:                                      IN:
           ---                                      ---
             STORAGE =        2411.3755               STORAGE =         158.5388
       CONSTANT HEAD =           0.0000         CONSTANT HEAD =           0.0000
     HEAD DEP BOUNDS =       59068.1016       HEAD DEP BOUNDS =        3883.5044
      STREAM LEAKAGE =      112228.1406        STREAM LEAKAGE =        7378.5762
                 MNW =        2062.2524                   MNW =         135.5853
          FARM WELLS =           0.0000            FARM WELLS =           0.0000
    FARM  NET  RECH. =      441222.7500      FARM  NET  RECH. =       29008.7285
     GHOST-NODE FLUX =      105972.1016       GHOST-NODE FLUX =        6967.2651

            TOTAL IN =      722964.7500              TOTAL IN =       47532.1992

          OUT:                                     OUT:
          ----                                     ----
             STORAGE =      151791.2500               STORAGE =        9979.7012
       CONSTANT HEAD =           0.0000         CONSTANT HEAD =           0.0000
     HEAD DEP BOUNDS =      292270.4375       HEAD DEP BOUNDS =       19215.6758
      STREAM LEAKAGE =      176743.0312        STREAM LEAKAGE =       11620.1865
                 MNW =        2062.2524                   MNW =         135.5853
          FARM WELLS =           0.0000            FARM WELLS =           0.0000
    FARM  NET  RECH. =        7923.9087      FARM  NET  RECH. =         520.9670
     GHOST-NODE FLUX =       92185.8359       GHOST-NODE FLUX =        6060.8701

           TOTAL OUT =      722976.7500             TOTAL OUT =       47532.9883

            IN - OUT =         -12.0000              IN - OUT =          -0.7891

 PERCENT DISCREPANCY =          -0.00     PERCENT DISCREPANCY =          -0.00






          TIME SUMMARY AT END OF TIME STEP     1 IN STRESS PERIOD      1
                    SECONDS     MINUTES      HOURS       DAYS        YEARS
                    -----------------------------------------------------------
   TIME STEP LENGTH 1.31414E+06  21902.      365.04      15.210     4.16427E-02
 STRESS PERIOD TIME 1.31414E+06  21902.      365.04      15.210     4.16427E-02
         TOTAL TIME 1.31414E+06  21902.      365.04      15.210     4.16427E-02
1
 
 SOLVING FOR HEAD 
     4 CALLS TO PCG ROUTINE FOR TIME STEP   2 IN STRESS PERIOD    1
    16 TOTAL ITERATIONS
     4 CALLS TO PCG ROUTINE FOR TIME STEP   2 IN STRESS PERIOD    1
    12 TOTAL ITERATIONS
     3 CALLS TO PCG ROUTINE FOR TIME STEP   2 IN STRESS PERIOD    1
     8 TOTAL ITERATIONS
     2 CALLS TO PCG ROUTINE FOR TIME STEP   2 IN STRESS PERIOD    1
     6 TOTAL ITERATIONS
     2 CALLS TO PCG ROUTINE FOR TIME STEP   2 IN STRESS PERIOD    1
     5 TOTAL ITERATIONS
     2 CALLS TO PCG ROUTINE FOR TIME STEP   2 IN STRESS PERIOD    1
     5 TOTAL ITERATIONS
     2 CALLS TO PCG ROUTINE FOR TIME STEP   2 IN STRESS PERIOD    1
     4 TOTAL ITERATIONS
     2 CALLS TO PCG ROUTINE FOR TIME STEP   2 IN STRESS PERIOD    1
     4 TOTAL ITERATIONS
     2 CALLS TO PCG ROUTINE FOR TIME STEP   2 IN STRESS PERIOD    1
     4 TOTAL ITERATIONS
     2 CALLS TO PCG ROUTINE FOR TIME STEP   2 IN STRESS PERIOD    1
     3 TOTAL ITERATIONS

 OUTPUT CONTROL FOR STRESS PERIOD      1   TIME STEP     2
    SAVE BUDGET
 UBDSV1 SAVING "         STORAGE" ON UNIT  70 AT TIME STEP    2, STRESS PERIOD   1
 UBDSV2 SAVING "   CONSTANT HEAD" ON UNIT  70 AT TIME STEP    2, STRESS PERIOD   1
 UBDSV1 SAVING "FLOW RIGHT FACE " ON UNIT  70 AT TIME STEP    2, STRESS PERIOD   1
 UBDSV1 SAVING "FLOW FRONT FACE " ON UNIT  70 AT TIME STEP    2, STRESS PERIOD   1
 UBDSV1 SAVING "FLOW LOWER FACE " ON UNIT  70 AT TIME STEP    2, STRESS PERIOD   1
 UBDSV4 SAVING " HEAD DEP BOUNDS" ON UNIT  70 AT TIME STEP    2, STRESS PERIOD   1
 UBDSV4 SAVING "  STREAM LEAKAGE" ON UNIT  70 AT TIME STEP    2, STRESS PERIOD   1



 UBDSV4 SAVING "             MNW" ON UNIT  70 AT TIME STEP    2, STRESS PERIOD   1
 UBDSV3 SAVING "FARM  NET  RECH." ON UNIT  70 AT TIME STEP    2, STRESS PERIOD   1
 UBDSV4 SAVING " GHOST-NODE FLUX" ON UNIT  70 AT TIME STEP    2, STRESS PERIOD   1
 UBDSV4 SAVING " GHOST-NODE FLUX" ON UNIT  70 AT TIME STEP    2, STRESS PERIOD   1
 UBDSV4 SAVING " GHOST-NODE FLUX" ON UNIT  70 AT TIME STEP    2, STRESS PERIOD   1
1
  VOLUMETRIC BUDGET FOR ENTIRE MODEL AT END OF TIME STEP    2 IN STRESS PERIOD      1
  ------------------------------------------------------------------------------

     CUMULATIVE VOLUMES      L**3       RATES FOR THIS TIME STEP      L**3/T
     ------------------                 ------------------------

           IN:                                      IN:
           ---                                      ---
             STORAGE =        3232.4370               STORAGE =          53.9817
       CONSTANT HEAD =           0.0000         CONSTANT HEAD =           0.0000
     HEAD DEP BOUNDS =      117215.7969       HEAD DEP BOUNDS =        3822.9915
      STREAM LEAKAGE =      223515.1250        STREAM LEAKAGE =        7316.6992
                 MNW =        4038.2849                   MNW =         129.9167
          FARM WELLS =           0.0000            FARM WELLS =           0.0000
    FARM  NET  RECH. =      881477.7500      FARM  NET  RECH. =       28945.1035
     GHOST-NODE FLUX =      213916.2500       GHOST-NODE FLUX =        7096.9204

            TOTAL IN =     1443395.6250              TOTAL IN =       47365.6133

          OUT:                                     OUT:
          ----                                     ----
             STORAGE =      282421.7188               STORAGE =        8588.4590
       CONSTANT HEAD =           0.0000         CONSTANT HEAD =           0.0000
     HEAD DEP BOUNDS =      585159.3750       HEAD DEP BOUNDS =       19256.3418
      STREAM LEAKAGE =      362783.1875        STREAM LEAKAGE =       12231.4355
                 MNW =        4038.2849                   MNW =         129.9167
          FARM WELLS =           0.0000            FARM WELLS =           0.0000
    FARM  NET  RECH. =       16422.6934      FARM  NET  RECH. =         558.7629
     GHOST-NODE FLUX =      192595.7500       GHOST-NODE FLUX =        6601.5723

           TOTAL OUT =     1443421.0000             TOTAL OUT =       47366.4844

            IN - OUT =         -25.3750              IN - OUT =          -0.8711

 PERCENT DISCREPANCY =          -0.00     PERCENT DISCREPANCY =          -0.00






          TIME SUMMARY AT END OF TIME STEP     2 IN STRESS PERIOD      1
                    SECONDS     MINUTES      HOURS       DAYS        YEARS
                    -----------------------------------------------------------
   TIME STEP LENGTH 1.31414E+06  21902.      365.04      15.210     4.16427E-02
 STRESS PERIOD TIME 2.62829E+06  43805.      730.08      30.420     8.32854E-02
         TOTAL TIME 2.62829E+06  43805.      730.08      30.420     8.32854E-02
1
1
                            STRESS PERIOD NO.      2, LENGTH =   30.42000    
                            -----------------------------------------------

                              NUMBER OF TIME STEPS =     2

                               MULTIPLIER FOR DELT =     1.000

                            INITIAL TIME STEP SIZE =   15.21000    

 REUSING NON-PARAMETER GHB CELLS FROM LAST STRESS PERIOD

     92 GHB CELLS

 REUSING STREAM SEGMENT DATA FROM LAST STRESS PERIOD

 REUSING MNW7  FROM LAST STRESS PERIOD

 OPENING FILE ON UNIT   99:
 ./DATA_FMP/WELLS.in                                                                                                                                                                                                                                                                                                                                                                                                                                                                                                                                                                                                                                                                                                         

 WELL NO. LAYER    ROW    COL  F-WELL ID    FARM ID         QMAX         QMAXRESET       
 ----------------------------------------------------------------------------------------
       1      1      5      6          1          1      5.0000E+00              0
       2      1      8      7          2          1      5.0000E+00              0
       3      1      8      9          3          1      5.0000E+00              0
       4      1      5      9          4          2      3.0000E+00              0
       5      1      6     10          5          2      2.0000E+00              0
       6      1      7     11          6          2      1.0000E+00              0
       7      1     18      3          7          3      2.0000E+00              0
       8      1     21      3          8          3      4.0000E+00              0
       9      1     18     19          9          4      3.0000E+00              0
      10      1     21     19         10          4      5.0000E+00              0
      11      0      6      2        -11          5      5.0000E+00              1
      12      0      8      2        -12          5      5.0000E+00              1
      13      0     10      2        -13          5      5.0000E+00              1
      14      0      3     19        -14          6      1.0000E+01              1
      15      0      6     17        -15          6      6.0000E+00              1

 Parameter:  WELLS1
 WELL NO. LAYER    ROW    COL  F-WELL ID    FARM ID         QMAX         QMAXRESET       
 ----------------------------------------------------------------------------------------
      16      1      5      6          1          1      5.0000E+03              0
      17      1      8      7          2          1      5.0000E+03              0
      18      1      8      9          3          1      5.0000E+03              0
      19      1      5      9          4          2      3.0000E+03              0
      20      1      6     10          5          2      2.0000E+03              0
      21      1      7     11          6          2      1.0000E+03              0
      22      1     18      3          7          3      2.0000E+03              0
      23      1     21      3          8          3      4.0000E+03              0
      24      1     18     19          9          4      3.0000E+03              0
      25      1     21     19         10          4      5.0000E+03              0
      26      0      6      2        -11          5      5.0000E+03              1
      27      0      8      2        -12          5      5.0000E+03              1
      28      0     10      2        -13          5      5.0000E+03              1
      29      0      3     19        -14          6      1.0000E+04              1
      30      0      6     17        -15          6      6.0000E+03              1

 NUMBER OF ACTIVE FARM WELLS:       30

 FARM-ID  NUMBER OF WELLS PER FARM  TOTAL MAX.CAPACITY PER FARM
       1                         0                       0.0000
       2                         0                       0.0000
       3                         4                    6006.0000
       4                         4                    8008.0000
       5                         6                   15015.0000
       6                         4                   16016.0000
       7                         0                       0.0000
       8                         0                       0.0000

 READING LIST ON UNIT   20 WITH FILE NAME: C:\MF_OWHM_Release_Package\MF_OWHM_v1_0\examples\test-run-owhm-lgr\fmp-lgr-lpf\DATA_FMP\OFE.in
 LIST SCALING FACTOR= 0.65000    
 (THE SCALE FACTOR WAS APPLIED TO FIELDS   2 -   7)

 Reading list on unit   30

 Reading list on unit   40

  REF. EVAPOTRANSPIRATION =  1.500000E-03

 READING LIST ON UNIT   50 WITH FILE NAME: C:\MF_OWHM_Release_Package\MF_OWHM_v1_0\examples\test-run-owhm-lgr\fmp-lgr-lpf\DATA_FMP\FTE.in

Transpiratory and Evaporative Fractions of Crop Consumptive Use
    % Transpiration % Evap. for Precip. % Evap. for Irrig.
    1          0.000          1.000          0.500
    2          0.822          0.178          0.158
    3          0.845          0.155          0.155
    4          0.125          0.875          0.875
    5          0.783          0.217          0.000
    6          0.400          0.600          0.000

 READING LIST ON UNIT   60 WITH FILE NAME: C:\MF_OWHM_Release_Package\MF_OWHM_v1_0\examples\test-run-owhm-lgr\fmp-lgr-lpf\DATA_FMP\INEFFSW.in

FRACTIONS OF IN-EFFICIENT LOSSES TO SW-RUNOFF FROM 
     PRECIPITATION:  IRRIGATION:
    1          0.500          0.600
    2          0.400          0.300
    3          0.600          0.500
    4          0.700          0.600
    5          0.850          0.000
    6          0.750          0.000

       PRECIPITATION FLUX =  2.630000E-03

 OPENING FILE WITH FILENAME: ./DATA_FMP/NRDV.in
 AND UNIT NUMBER: -145
 READING SCALE FACTOR LIST ON UNIT   80 ASSOCIATED WITH FILE: C:\MF_OWHM_Release_Package\MF_OWHM_v1_0\examples\test-run-owhm-lgr\fmp-lgr-lpf\DATA_FMP\NRDV.in
 FIELD     SCALE FACTOR
     1       1.0000    
     2       2.0000    
     3       1.0000    
     4       1.0000    

UNRANKED LIST OF NON-ROUTED DELIVERIES TO FARMS [L3]:
TYPE:             1

FARM-ID  VOLUME:
      1   3.000E+04
      2   3.000E+04
      3   4.000E+04
      4   2.000E+04
      5   2.000E+04
      6   4.000E+04
      7   0.000E+00
      8   0.000E+00

FARM-ID  PRIORITY RANK OF NRD-TYPE:
      1           1
[...]
     7 TOTAL ITERATIONS


     2 CALLS TO PCG ROUTINE FOR TIME STEP   1 IN STRESS PERIOD   23
     4 TOTAL ITERATIONS


     2 CALLS TO PCG ROUTINE FOR TIME STEP   1 IN STRESS PERIOD   23
     4 TOTAL ITERATIONS


     2 CALLS TO PCG ROUTINE FOR TIME STEP   1 IN STRESS PERIOD   23
     4 TOTAL ITERATIONS

 OUTPUT CONTROL FOR STRESS PERIOD     23   TIME STEP     1
    SAVE BUDGET
 UBDSV1 SAVING "         STORAGE" ON UNIT  70 AT TIME STEP    1, STRESS PERIOD  23
 UBDSV2 SAVING "   CONSTANT HEAD" ON UNIT  70 AT TIME STEP    1, STRESS PERIOD  23
 UBDSV1 SAVING "FLOW RIGHT FACE " ON UNIT  70 AT TIME STEP    1, STRESS PERIOD  23
 UBDSV1 SAVING "FLOW FRONT FACE " ON UNIT  70 AT TIME STEP    1, STRESS PERIOD  23
 UBDSV1 SAVING "FLOW LOWER FACE " ON UNIT  70 AT TIME STEP    1, STRESS PERIOD  23
 UBDSV4 SAVING " HEAD DEP BOUNDS" ON UNIT  70 AT TIME STEP    1, STRESS PERIOD  23
 UBDSV4 SAVING "  STREAM LEAKAGE" ON UNIT  70 AT TIME STEP    1, STRESS PERIOD  23



 UBDSV4 SAVING "             MNW" ON UNIT  70 AT TIME STEP    1, STRESS PERIOD  23
 UBDSV3 SAVING "FARM  NET  RECH." ON UNIT  70 AT TIME STEP    1, STRESS PERIOD  23
 UBDSV4 SAVING " GHOST-NODE FLUX" ON UNIT  70 AT TIME STEP    1, STRESS PERIOD  23
 UBDSV4 SAVING " GHOST-NODE FLUX" ON UNIT  70 AT TIME STEP    1, STRESS PERIOD  23
 UBDSV4 SAVING " GHOST-NODE FLUX" ON UNIT  70 AT TIME STEP    1, STRESS PERIOD  23
 
 SOLVING FOR HEAD 
     6 CALLS TO PCG ROUTINE FOR TIME STEP   2 IN STRESS PERIOD   23
    25 TOTAL ITERATIONS
     6 CALLS TO PCG ROUTINE FOR TIME STEP   2 IN STRESS PERIOD   23
    21 TOTAL ITERATIONS
     4 CALLS TO PCG ROUTINE FOR TIME STEP   2 IN STRESS PERIOD   23
    12 TOTAL ITERATIONS
     4 CALLS TO PCG ROUTINE FOR TIME STEP   2 IN STRESS PERIOD   23
    11 TOTAL ITERATIONS
     3 CALLS TO PCG ROUTINE FOR TIME STEP   2 IN STRESS PERIOD   23
     8 TOTAL ITERATIONS
     2 CALLS TO PCG ROUTINE FOR TIME STEP   2 IN STRESS PERIOD   23
     5 TOTAL ITERATIONS
     2 CALLS TO PCG ROUTINE FOR TIME STEP   2 IN STRESS PERIOD   23
     5 TOTAL ITERATIONS
     2 CALLS TO PCG ROUTINE FOR TIME STEP   2 IN STRESS PERIOD   23
     5 TOTAL ITERATIONS
     2 CALLS TO PCG ROUTINE FOR TIME STEP   2 IN STRESS PERIOD   23
     4 TOTAL ITERATIONS
     2 CALLS TO PCG ROUTINE FOR TIME STEP   2 IN STRESS PERIOD   23
     4 TOTAL ITERATIONS
     2 CALLS TO PCG ROUTINE FOR TIME STEP   2 IN STRESS PERIOD   23
     4 TOTAL ITERATIONS

 OUTPUT CONTROL FOR STRESS PERIOD     23   TIME STEP     2
    SAVE BUDGET
 UBDSV1 SAVING "         STORAGE" ON UNIT  70 AT TIME STEP    2, STRESS PERIOD  23
 UBDSV2 SAVING "   CONSTANT HEAD" ON UNIT  70 AT TIME STEP    2, STRESS PERIOD  23
 UBDSV1 SAVING "FLOW RIGHT FACE " ON UNIT  70 AT TIME STEP    2, STRESS PERIOD  23
 UBDSV1 SAVING "FLOW FRONT FACE " ON UNIT  70 AT TIME STEP    2, STRESS PERIOD  23
 UBDSV1 SAVING "FLOW LOWER FACE " ON UNIT  70 AT TIME STEP    2, STRESS PERIOD  23
 UBDSV4 SAVING " HEAD DEP BOUNDS" ON UNIT  70 AT TIME STEP    2, STRESS PERIOD  23
 UBDSV4 SAVING "  STREAM LEAKAGE" ON UNIT  70 AT TIME STEP    2, STRESS PERIOD  23



 UBDSV4 SAVING "             MNW" ON UNIT  70 AT TIME STEP    2, STRESS PERIOD  23
 UBDSV3 SAVING "FARM  NET  RECH." ON UNIT  70 AT TIME STEP    2, STRESS PERIOD  23
 UBDSV4 SAVING " GHOST-NODE FLUX" ON UNIT  70 AT TIME STEP    2, STRESS PERIOD  23
 UBDSV4 SAVING " GHOST-NODE FLUX" ON UNIT  70 AT TIME STEP    2, STRESS PERIOD  23
 UBDSV4 SAVING " GHOST-NODE FLUX" ON UNIT  70 AT TIME STEP    2, STRESS PERIOD  23
1
  VOLUMETRIC BUDGET FOR ENTIRE MODEL AT END OF TIME STEP    2 IN STRESS PERIOD     23
  ------------------------------------------------------------------------------

     CUMULATIVE VOLUMES      L**3       RATES FOR THIS TIME STEP      L**3/T
     ------------------                 ------------------------

           IN:                                      IN:
           ---                                      ---
             STORAGE =    13368808.0000               STORAGE =         216.9717
       CONSTANT HEAD =           0.0000         CONSTANT HEAD =           0.0000
     HEAD DEP BOUNDS =     4429378.5000       HEAD DEP BOUNDS =        8067.0659
      STREAM LEAKAGE =     8856577.0000        STREAM LEAKAGE =       19972.0605
                 MNW =       37990.2852                   MNW =         106.7050
          FARM WELLS =           0.0000            FARM WELLS =           0.0000
    FARM  NET  RECH. =    11507793.0000      FARM  NET  RECH. =       16031.0332
     GHOST-NODE FLUX =     4482279.0000       GHOST-NODE FLUX =        6173.8584

            TOTAL IN =    42682828.0000              TOTAL IN =       50567.6953

          OUT:                                     OUT:
          ----                                     ----
             STORAGE =     5384097.0000               STORAGE =       25230.1328
       CONSTANT HEAD =           0.0000         CONSTANT HEAD =           0.0000
     HEAD DEP BOUNDS =    12060147.0000       HEAD DEP BOUNDS =       16029.9717
      STREAM LEAKAGE =     2015424.5000        STREAM LEAKAGE =        1039.2820
                 MNW =     6839338.5000                   MNW =         106.7050
          FARM WELLS =     7223999.5000            FARM WELLS =         988.6597
    FARM  NET  RECH. =     4554037.5000      FARM  NET  RECH. =         676.2874
     GHOST-NODE FLUX =     4594936.5000       GHOST-NODE FLUX =        6496.6006

           TOTAL OUT =    42671980.0000             TOTAL OUT =       50567.6406

            IN - OUT =       10848.0000              IN - OUT =       5.4688E-02

 PERCENT DISCREPANCY =           0.03     PERCENT DISCREPANCY =           0.00






          TIME SUMMARY AT END OF TIME STEP     2 IN STRESS PERIOD     23
                    SECONDS     MINUTES      HOURS       DAYS        YEARS
                    -----------------------------------------------------------
   TIME STEP LENGTH 1.31414E+06  21902.      365.04      15.210     4.16427E-02
 STRESS PERIOD TIME 2.62829E+06  43805.      730.08      30.420     8.32854E-02
         TOTAL TIME 6.04506E+07 1.00751E+06  16792.      699.66      1.9156    
1
1
                            STRESS PERIOD NO.     24, LENGTH =   30.42000    
                            -----------------------------------------------

                              NUMBER OF TIME STEPS =     2

                               MULTIPLIER FOR DELT =     1.000

                            INITIAL TIME STEP SIZE =   15.21000    

 REUSING NON-PARAMETER GHB CELLS FROM LAST STRESS PERIOD

     92 GHB CELLS

 REUSING STREAM SEGMENT DATA FROM LAST STRESS PERIOD

 REUSING MNW7  FROM LAST STRESS PERIOD

 Parameter:  WELLS1
 WELL NO. LAYER    ROW    COL  F-WELL ID    FARM ID         QMAX         QMAXRESET       
 ----------------------------------------------------------------------------------------
       1      1      5      6          1          1      5.0000E+03              0
       2      1      8      7          2          1      5.0000E+03              0
       3      1      8      9          3          1      5.0000E+03              0
       4      1      5      9          4          2      3.0000E+03              0
       5      1      6     10          5          2      2.0000E+03              0
       6      1      7     11          6          2      1.0000E+03              0
       7      1     18      3          7          3      2.0000E+03              0
       8      1     21      3          8          3      4.0000E+03              0
       9      1     18     19          9          4      3.0000E+03              0
      10      1     21     19         10          4      5.0000E+03              0
      11      0      6      2        -11          5      5.0000E+03              1
      12      0      8      2        -12          5      5.0000E+03              1
      13      0     10      2        -13          5      5.0000E+03              1
      14      0      3     19        -14          6      1.0000E+04              1
      15      0      6     17        -15          6      6.0000E+03              1

 NUMBER OF ACTIVE FARM WELLS:       15

 THE SINGLE LAYER FMP- OR MNW- WELL IN ROW      8 AND COLUMN      7 IS LOCATED IN AN INACTIVE CELL (IBOUND=0) AND HAS BEEN EXCLUDED FROM THE TOTAL MAXIMUM CAPACITY PER FARM

 THE SINGLE LAYER FMP- OR MNW- WELL IN ROW      8 AND COLUMN      9 IS LOCATED IN AN INACTIVE CELL (IBOUND=0) AND HAS BEEN EXCLUDED FROM THE TOTAL MAXIMUM CAPACITY PER FARM

 THE SINGLE LAYER FMP- OR MNW- WELL IN ROW      6 AND COLUMN     10 IS LOCATED IN AN INACTIVE CELL (IBOUND=0) AND HAS BEEN EXCLUDED FROM THE TOTAL MAXIMUM CAPACITY PER FARM

 THE SINGLE LAYER FMP- OR MNW- WELL IN ROW      7 AND COLUMN     11 IS LOCATED IN AN INACTIVE CELL (IBOUND=0) AND HAS BEEN EXCLUDED FROM THE TOTAL MAXIMUM CAPACITY PER FARM

 FARM-ID  NUMBER OF WELLS PER FARM  TOTAL MAX.CAPACITY PER FARM
       1                         1                    5000.0000
       2                         1                    3000.0000
       3                         2                    6000.0000
       4                         2                    8000.0000
       5                         3                   15000.0000
       6                         2                   16000.0000
       7                         0                       0.0000
       8                         0                       0.0000

 READING LIST ON UNIT   20 WITH FILE NAME: C:\MF_OWHM_Release_Package\MF_OWHM_v1_0\examples\test-run-owhm-lgr\fmp-lgr-lpf\DATA_FMP\OFE.in
 LIST SCALING FACTOR= 0.70000    
 (THE SCALE FACTOR WAS APPLIED TO FIELDS   2 -   7)

 Reading list on unit   30

 Reading list on unit   40

  REF. EVAPOTRANSPIRATION =  9.600000E-04

 READING LIST ON UNIT   50 WITH FILE NAME: C:\MF_OWHM_Release_Package\MF_OWHM_v1_0\examples\test-run-owhm-lgr\fmp-lgr-lpf\DATA_FMP\FTE.in

Transpiratory and Evaporative Fractions of Crop Consumptive Use
    % Transpiration % Evap. for Precip. % Evap. for Irrig.
    1          0.000          1.000          0.500
    2          0.000          1.000          0.350
    3          0.957          0.043          0.043
    4          0.125          0.875          0.875
    5          0.926          0.074          0.000
    6          0.200          0.800          0.000

 READING LIST ON UNIT   60 WITH FILE NAME: C:\MF_OWHM_Release_Package\MF_OWHM_v1_0\examples\test-run-owhm-lgr\fmp-lgr-lpf\DATA_FMP\INEFFSW.in

FRACTIONS OF IN-EFFICIENT LOSSES TO SW-RUNOFF FROM 
     PRECIPITATION:  IRRIGATION:
    1          0.500          0.600
    2          0.400          0.300
    3          0.600          0.500
    4          0.700          0.600
    5          0.830          0.000
    6          0.730          0.000

       PRECIPITATION FLUX =  2.100000E-03

 OPENING FILE WITH FILENAME: ./DATA_FMP/NRDV.in
 AND UNIT NUMBER: -167
 READING SCALE FACTOR LIST ON UNIT   80 ASSOCIATED WITH FILE: C:\MF_OWHM_Release_Package\MF_OWHM_v1_0\examples\test-run-owhm-lgr\fmp-lgr-lpf\DATA_FMP\NRDV.in
 FIELD     SCALE FACTOR
     1       1.0000    
     2       1.0000    
     3       1.0000    
     4       1.0000    

UNRANKED LIST OF NON-ROUTED DELIVERIES TO FARMS [L3]:
TYPE:             1

FARM-ID  VOLUME:
      1   1.500E+04
      2   1.500E+04
      3   2.000E+04
      4   1.000E+04
      5   1.000E+04
      6   2.000E+04
      7   0.000E+00
      8   0.000E+00

FARM-ID  PRIORITY RANK OF NRD-TYPE:
      1           1
      2           1
      3           1
      4           1
      5           1
      6           1
      7           1
      8           1

FARM-ID  USE-FLAG:
         0 = SUFFICIENT USE
         1 = ABSOLUTE USE (RECHARGE SURPLUS BACK INTO CANAL)
         2 = ABSOLUTE USE (INJECT SURPLUS INTO FARM-WELLS)
      1           0
      2           0
      3           0
      4           0
      5           0
      6           0
      7           0
      8           0

LIST OF NON-ROUTED DELIVERIES IN RANKED SEQUENCE [L3/T]:

FARM-ID  RATE:
      1   4.931E+02
      2   4.931E+02
      3   6.575E+02
      4   3.287E+02
      5   3.287E+02
      6   6.575E+02
      7   0.000E+00
      8   0.000E+00

FARM-ID  USE-FLAG:
         0 = SUFFICIENT USE
         1 = ABSOLUTE USE (RECHARGE SURPLUS BACK INTO CANAL)
         2 = ABSOLUTE USE (INJECT SURPLUS INTO FARM-WELLS)
      1           0
      2           0
      3           0
      4           0
      5           0
      6           0
      7           0
      8           0

SURFACE-WATER FARM ALLOTMENT HEIGHT [L]:   0.000
 
 SOLVING FOR HEAD 


     6 CALLS TO PCG ROUTINE FOR TIME STEP   1 IN STRESS PERIOD   24
    33 TOTAL ITERATIONS


     5 CALLS TO PCG ROUTINE FOR TIME STEP   1 IN STRESS PERIOD   24
    16 TOTAL ITERATIONS


     5 CALLS TO PCG ROUTINE FOR TIME STEP   1 IN STRESS PERIOD   24
    14 TOTAL ITERATIONS


     4 CALLS TO PCG ROUTINE FOR TIME STEP   1 IN STRESS PERIOD   24
    11 TOTAL ITERATIONS


     4 CALLS TO PCG ROUTINE FOR TIME STEP   1 IN STRESS PERIOD   24
    10 TOTAL ITERATIONS


     4 CALLS TO PCG ROUTINE FOR TIME STEP   1 IN STRESS PERIOD   24
    10 TOTAL ITERATIONS


     3 CALLS TO PCG ROUTINE FOR TIME STEP   1 IN STRESS PERIOD   24
     7 TOTAL ITERATIONS


     3 CALLS TO PCG ROUTINE FOR TIME STEP   1 IN STRESS PERIOD   24
     7 TOTAL ITERATIONS


     2 CALLS TO PCG ROUTINE FOR TIME STEP   1 IN STRESS PERIOD   24
     4 TOTAL ITERATIONS


     2 CALLS TO PCG ROUTINE FOR TIME STEP   1 IN STRESS PERIOD   24
     4 TOTAL ITERATIONS


     2 CALLS TO PCG ROUTINE FOR TIME STEP   1 IN STRESS PERIOD   24
     3 TOTAL ITERATIONS

 OUTPUT CONTROL FOR STRESS PERIOD     24   TIME STEP     1
    SAVE BUDGET
 UBDSV1 SAVING "         STORAGE" ON UNIT  70 AT TIME STEP    1, STRESS PERIOD  24
 UBDSV2 SAVING "   CONSTANT HEAD" ON UNIT  70 AT TIME STEP    1, STRESS PERIOD  24
 UBDSV1 SAVING "FLOW RIGHT FACE " ON UNIT  70 AT TIME STEP    1, STRESS PERIOD  24
 UBDSV1 SAVING "FLOW FRONT FACE " ON UNIT  70 AT TIME STEP    1, STRESS PERIOD  24
 UBDSV1 SAVING "FLOW LOWER FACE " ON UNIT  70 AT TIME STEP    1, STRESS PERIOD  24
 UBDSV4 SAVING " HEAD DEP BOUNDS" ON UNIT  70 AT TIME STEP    1, STRESS PERIOD  24
 UBDSV4 SAVING "  STREAM LEAKAGE" ON UNIT  70 AT TIME STEP    1, STRESS PERIOD  24



 UBDSV4 SAVING "             MNW" ON UNIT  70 AT TIME STEP    1, STRESS PERIOD  24
 UBDSV3 SAVING "FARM  NET  RECH." ON UNIT  70 AT TIME STEP    1, STRESS PERIOD  24
 UBDSV4 SAVING " GHOST-NODE FLUX" ON UNIT  70 AT TIME STEP    1, STRESS PERIOD  24
 UBDSV4 SAVING " GHOST-NODE FLUX" ON UNIT  70 AT TIME STEP    1, STRESS PERIOD  24
 UBDSV4 SAVING " GHOST-NODE FLUX" ON UNIT  70 AT TIME STEP    1, STRESS PERIOD  24
 
 SOLVING FOR HEAD 
     5 CALLS TO PCG ROUTINE FOR TIME STEP   2 IN STRESS PERIOD   24
    21 TOTAL ITERATIONS
     4 CALLS TO PCG ROUTINE FOR TIME STEP   2 IN STRESS PERIOD   24
    13 TOTAL ITERATIONS
     4 CALLS TO PCG ROUTINE FOR TIME STEP   2 IN STRESS PERIOD   24
    12 TOTAL ITERATIONS
     3 CALLS TO PCG ROUTINE FOR TIME STEP   2 IN STRESS PERIOD   24
     8 TOTAL ITERATIONS
     3 CALLS TO PCG ROUTINE FOR TIME STEP   2 IN STRESS PERIOD   24
     8 TOTAL ITERATIONS
     2 CALLS TO PCG ROUTINE FOR TIME STEP   2 IN STRESS PERIOD   24
     6 TOTAL ITERATIONS
     2 CALLS TO PCG ROUTINE FOR TIME STEP   2 IN STRESS PERIOD   24
     5 TOTAL ITERATIONS
     2 CALLS TO PCG ROUTINE FOR TIME STEP   2 IN STRESS PERIOD   24
     5 TOTAL ITERATIONS
     2 CALLS TO PCG ROUTINE FOR TIME STEP   2 IN STRESS PERIOD   24
     4 TOTAL ITERATIONS
     2 CALLS TO PCG ROUTINE FOR TIME STEP   2 IN STRESS PERIOD   24
     4 TOTAL ITERATIONS
     2 CALLS TO PCG ROUTINE FOR TIME STEP   2 IN STRESS PERIOD   24
     3 TOTAL ITERATIONS

 OUTPUT CONTROL FOR STRESS PERIOD     24   TIME STEP     2
    PRINT BUDGET
    SAVE HEAD FOR ALL LAYERS
    SAVE BUDGET
 UBDSV1 SAVING "         STORAGE" ON UNIT  70 AT TIME STEP    2, STRESS PERIOD  24
 UBDSV2 SAVING "   CONSTANT HEAD" ON UNIT  70 AT TIME STEP    2, STRESS PERIOD  24
 UBDSV1 SAVING "FLOW RIGHT FACE " ON UNIT  70 AT TIME STEP    2, STRESS PERIOD  24
 UBDSV1 SAVING "FLOW FRONT FACE " ON UNIT  70 AT TIME STEP    2, STRESS PERIOD  24
 UBDSV1 SAVING "FLOW LOWER FACE " ON UNIT  70 AT TIME STEP    2, STRESS PERIOD  24
 UBDSV4 SAVING " HEAD DEP BOUNDS" ON UNIT  70 AT TIME STEP    2, STRESS PERIOD  24
 UBDSV4 SAVING "  STREAM LEAKAGE" ON UNIT  70 AT TIME STEP    2, STRESS PERIOD  24



 UBDSV4 SAVING "             MNW" ON UNIT  70 AT TIME STEP    2, STRESS PERIOD  24
 UBDSV3 SAVING "FARM  NET  RECH." ON UNIT  70 AT TIME STEP    2, STRESS PERIOD  24
 UBDSV4 SAVING " GHOST-NODE FLUX" ON UNIT  70 AT TIME STEP    2, STRESS PERIOD  24
 UBDSV4 SAVING " GHOST-NODE FLUX" ON UNIT  70 AT TIME STEP    2, STRESS PERIOD  24
 UBDSV4 SAVING " GHOST-NODE FLUX" ON UNIT  70 AT TIME STEP    2, STRESS PERIOD  24

 HEAD WILL BE SAVED ON UNIT   22 AT END OF TIME STEP     2, STRESS PERIOD     24
1
  VOLUMETRIC BUDGET FOR ENTIRE MODEL AT END OF TIME STEP    2 IN STRESS PERIOD     24
  ------------------------------------------------------------------------------

     CUMULATIVE VOLUMES      L**3       RATES FOR THIS TIME STEP      L**3/T
     ------------------                 ------------------------

           IN:                                      IN:
           ---                                      ---
             STORAGE =    13368808.0000               STORAGE =           0.0000
       CONSTANT HEAD =           0.0000         CONSTANT HEAD =           0.0000
     HEAD DEP BOUNDS =     4660831.5000       HEAD DEP BOUNDS =        7460.8511
      STREAM LEAKAGE =     9406954.0000        STREAM LEAKAGE =       16739.0156
                 MNW =       41272.8203                   MNW =         112.8936
          FARM WELLS =           0.0000            FARM WELLS =           0.0000
    FARM  NET  RECH. =    12582026.0000      FARM  NET  RECH. =       35136.9102
     GHOST-NODE FLUX =     4688791.5000       GHOST-NODE FLUX =        6906.4517

            TOTAL IN =    44748684.0000              TOTAL IN =       66356.1250

          OUT:                                     OUT:
          ----                                     ----
             STORAGE =     6724467.0000               STORAGE =       42225.3828
       CONSTANT HEAD =           0.0000         CONSTANT HEAD =           0.0000
     HEAD DEP BOUNDS =    12561866.0000       HEAD DEP BOUNDS =       16636.9023
      STREAM LEAKAGE =     2059955.6250        STREAM LEAKAGE =        1638.7904
                 MNW =     6842621.0000                   MNW =         112.8936
          FARM WELLS =     7223999.5000            FARM WELLS =           0.0000
    FARM  NET  RECH. =     4557785.0000      FARM  NET  RECH. =         161.2507
     GHOST-NODE FLUX =     4767135.0000       GHOST-NODE FLUX =        5580.4492

           TOTAL OUT =    44737828.0000             TOTAL OUT =       66355.6719

            IN - OUT =       10856.0000              IN - OUT =           0.4531

 PERCENT DISCREPANCY =           0.02     PERCENT DISCREPANCY =           0.00






          TIME SUMMARY AT END OF TIME STEP     2 IN STRESS PERIOD     24
                    SECONDS     MINUTES      HOURS       DAYS        YEARS
                    -----------------------------------------------------------
   TIME STEP LENGTH 1.31414E+06  21902.      365.04      15.210     4.16427E-02
 STRESS PERIOD TIME 2.62829E+06  43805.      730.08      30.420     8.32854E-02
         TOTAL TIME 6.30789E+07 1.05132E+06  17522.      730.08      1.9989    
1
