
                       OWHM 1.0
    U.S. GEOLOGICAL SURVEY MODULAR FINITE-DIFFERENCE 
         ONE-WATER HYDROLOGIC-FLOW MODEL [OWHM]
              Version 1.0.0   11/05/2014

 INCLUDES:
          MODFLOW-2005 Version 1.11.0  08/08/2013
          FMP          Version 3.0.0   08/01/2014
          SWR          Version 1.03.0  09/24/2013
          SWI          Version 2.0.0   07/22/2013
          LGR          Version 2.0.0   09/19/2013
          NWT          Version 1.0.9   07/01/2014


 LIST FILE: ../../test-out-owhm-lgr/fmp-lgr-lpf/OWHM_EX2_child2.lst
                         UNIT  712

 OPENING OWHM_EX2_child2.lpf
 FILE TYPE:LPF   UNIT  912   STATUS:OLD    
 FORMAT:FORMATTED              ACCESS:SEQUENTIAL          

 OPENING OWHM_EX2_child2.ba6
 FILE TYPE:BAS6   UNIT 1012   STATUS:OLD    
 FORMAT:FORMATTED              ACCESS:SEQUENTIAL          

 OPENING OWHM_EX2_child2.dis
 FILE TYPE:DIS   UNIT 1112   STATUS:OLD    
 FORMAT:FORMATTED              ACCESS:SEQUENTIAL          
#fmp           1212 OWHM_EX2_child2.fmp   --> No file present for this as this child is not using fmp                                                                                                                                                                                                                                                                                                                                                                                                                                                                                                                                                                                                                       

 OPENING OWHM_EX2_child2.oc
 FILE TYPE:OC   UNIT 1912   STATUS:OLD    
 FORMAT:FORMATTED              ACCESS:SEQUENTIAL          
# Solvers                                                                                                                                                                                                                                                                                                                                                                                                                                                                                                                                                                                                                                                                                                                   

 OPENING OWHM_EX2.pcg
 FILE TYPE:PCG   UNIT 1812   STATUS:OLD    
 FORMAT:FORMATTED              ACCESS:SEQUENTIAL          
#                                                                                                                                                                                                                                                                                                                                                                                                                                                                                                                                                                                                                                                                                                                           

 OPENING ../../test-out-owhm-lgr/fmp-lgr-lpf/OWHM_EX2_child2.hed
 FILE TYPE:DATA   UNIT 2212   STATUS:UNKNOWN
 FORMAT:FORMATTED              ACCESS:SEQUENTIAL          
#FMP Datafiles                                                                                                                                                                                                                                                                                                                                                                                                                                                                                                                                                                                                                                                                                                              
#data          2012 OFE.in                                                                                                                                                                                                                                                                                                                                                                                                                                                                                                                                                                                                                                                                                                  
#data          3012 ROOT.in                                                                                                                                                                                                                                                                                                                                                                                                                                                                                                                                                                                                                                                                                                 
#data          4012 KC.in                                                                                                                                                                                                                                                                                                                                                                                                                                                                                                                                                                                                                                                                                                   
#data          5012 FTE.in                                                                                                                                                                                                                                                                                                                                                                                                                                                                                                                                                                                                                                                                                                  
#data          6012 INEFFSW.in                                                                                                                                                                                                                                                                                                                                                                                                                                                                                                                                                                                                                                                                                              
#DATA          8012 NRDFAC.in                                                                                                                                                                                                                                                                                                                                                                                                                                                                                                                                                                                                                                                                                               
#                                                                                                                                                                                                                                                                                                                                                                                                                                                                                                                                                                                                                                                                                                                           

 OPENING ../../test-out-owhm-lgr/fmp-lgr-lpf/CBC_child2.OUT
 FILE TYPE:DATA(BINARY)   UNIT 7012   STATUS:UNKNOWN
 FORMAT:UNFORMATTED            ACCESS:STREAM              

 OPENING ../../test-out-owhm-lgr/fmp-lgr-lpf/OWHM_EX2_child_bfh2.hed
 FILE TYPE:DATA   UNIT 5912   STATUS:UNKNOWN
 FORMAT:FORMATTED              ACCESS:SEQUENTIAL          

 OPENING ../../test-out-owhm-lgr/fmp-lgr-lpf/OWHM_EX2_child_bfh2.flw
 FILE TYPE:DATA   UNIT 6912   STATUS:UNKNOWN
 FORMAT:FORMATTED              ACCESS:SEQUENTIAL          

 BAS -- BASIC PACKAGE, VERSION 7, 5/2/2005 INPUT READ FROM UNIT 1012
 
 MODFLOW was compiled using mixed precision
 Precision of REAL variables:           6
 Precision of DOUBLE PRECISION variables:          15

 DISCRETIZATION INPUT DATA READ FROM UNIT 1112
 # generic model 1 transient discretization file

*** DIS COORDINATE SYSTEM NOT SEPECIFIED ***
DEFAULT VALUES APPLIED ARE 0° ROTATION
WITH THE ORIGIN (0,0) LOCATED AT THE MODEL'S LOWER LEFT CORNER


    4 LAYERS         3 ROWS        12 COLUMNS
     24 STRESS PERIOD(S) IN SIMULATION
 MODEL TIME UNIT IS DAYS
 MODEL LENGTH UNIT IS METERS
  Confining bed flag for each layer:
   1   1   1   0

                     DELR =   166.667    

                     DELC =   166.667    

 OPENING FILE ON UNIT   99:
 ./DATA_FMP/GSE_child2.in                                                                                                                                                                                                                                                                                                                                                                                                                                                                                                                                                                                                                                                                                                    



           TOP ELEVATION OF LAYER 1
 READING ON UNIT   99 WITH FORMAT: (FREE)              

   MODEL LAYER BOTTOM EL. =   205.000     FOR LAYER   1

 BOT. EL. OF QUASI-3D BED =   200.000     FOR LAYER   1

   MODEL LAYER BOTTOM EL. =   140.000     FOR LAYER   2

 BOT. EL. OF QUASI-3D BED =   125.000     FOR LAYER   2

   MODEL LAYER BOTTOM EL. =   65.0000     FOR LAYER   3

 BOT. EL. OF QUASI-3D BED =   60.0000     FOR LAYER   3

   MODEL LAYER BOTTOM EL. =   0.00000     FOR LAYER   4


 STRESS PERIOD     LENGTH       TIME STEPS     MULTIPLIER FOR DELT    SS FLAG
 ----------------------------------------------------------------------------
        1         30.42000          2                    1.000         TR
        2         30.42000          2                    1.000         TR
        3         30.42000          2                    1.000         TR
        4         30.42000          2                    1.000         TR
        5         30.42000          2                    1.000         TR
        6         30.42000          2                    1.000         TR
        7         30.42000          2                    1.000         TR
        8         30.42000          2                    1.000         TR
        9         30.42000          2                    1.000         TR
       10         30.42000          2                    1.000         TR
       11         30.42000          2                    1.000         TR
       12         30.42000          2                    1.000         TR
       13         30.42000          2                    1.000         TR
       14         30.42000          2                    1.000         TR
       15         30.42000          2                    1.000         TR
       16         30.42000          2                    1.000         TR
       17         30.42000          2                    1.000         TR
       18         30.42000          2                    1.000         TR
       19         30.42000          2                    1.000         TR
       20         30.42000          2                    1.000         TR
       21         30.42000          2                    1.000         TR
       22         30.42000          2                    1.000         TR
       23         30.42000          2                    1.000         TR
       24         30.42000          2                    1.000         TR

 TRANSIENT SIMULATION



 
 # generic model 1                                                               
 THE FREE FORMAT OPTION HAS BEEN SELECTED

 THE MAX STORAGE FOR PROPERTIES DEFINED BY PARAMETERS IS: 
 MAX STORAGE OF PARAMETERS (MXPAR)  IS       2000
 MAX STORAGE OF INSTANCES  (MXINST) IS      50000
 MAX STORAGE OF CLUSTERS   (MXCLST) IS    2000000

 CALCULATE FLOW BETWEEN ADJACENT CONSTANT-HEAD CELLS

 OPENING FILE ON UNIT   99:
 OWHM_EX2_child2.ib                                                                                                                                                                                                                                                                                                                                                                                                                                                                                                                                                                                                                                                                                                          



                     BOUNDARY ARRAY FOR LAYER   1
 READING ON UNIT   99 WITH FORMAT: (FREE)              

 OPENING FILE ON UNIT   99:
 OWHM_EX2_child2.ib                                                                                                                                                                                                                                                                                                                                                                                                                                                                                                                                                                                                                                                                                                          



                     BOUNDARY ARRAY FOR LAYER   2
 READING ON UNIT   99 WITH FORMAT: (FREE)              

 OPENING FILE ON UNIT   99:
 OWHM_EX2_child2.ib                                                                                                                                                                                                                                                                                                                                                                                                                                                                                                                                                                                                                                                                                                          



                     BOUNDARY ARRAY FOR LAYER   3
 READING ON UNIT   99 WITH FORMAT: (FREE)              

 OPENING FILE ON UNIT   99:
 OWHM_EX2_child2.ib                                                                                                                                                                                                                                                                                                                                                                                                                                                                                                                                                                                                                                                                                                          



                     BOUNDARY ARRAY FOR LAYER   4
 READING ON UNIT   99 WITH FORMAT: (FREE)              

CHECKING FOR VALID MODEL DIMENIONS FOR DELR, DELC, AND THICKNESS


 AQUIFER HEAD WILL BE SET TO  -333.00     AT ALL NO-FLOW NODES (IBOUND=0).

             INITIAL HEAD =   0.00000     FOR LAYER   1

             INITIAL HEAD =   0.00000     FOR LAYER   2

             INITIAL HEAD =   0.00000     FOR LAYER   3

             INITIAL HEAD =   0.00000     FOR LAYER   4

 OUTPUT CONTROL IS SPECIFIED ONLY AT TIME STEPS FOR WHICH OUTPUT IS DESIRED
 HEADS WILL BE SAVED WITH FORMAT: (100F8.2)           
 SAVED HEADS WILL BE LABELED
 COMPACT CELL-BY-CELL BUDGET FILES WILL BE WRITTEN
 HEAD PRINT FORMAT CODE IS  -3    DRAWDOWN PRINT FORMAT CODE IS   0
 HEADS WILL BE SAVED ON UNIT 2212    DRAWDOWNS WILL BE SAVED ON UNIT    0  WATER BUDGETs WILL BE SAVED ON UNIT 

 LGR2 -- LOCAL GRID REFINEMENT, VERSION 2.0, 06/25/2013
        INPUT READ FOR MODEL  3 DEFINED BY NAME FILE OWHM_EX2_child2.nam

 LOCAL GRID REFINEMENT IS ACTIVE FOR CHILD ONLY
               STARTING HEADS FROM PARENT WILL BE USED: ISHFLG =   1
               VALUE IN IBOUND INDICATING BOUNDARY INTERFACE = 4912
               BOUNDARY HEADS WILL BE SAVED ON UNIT  5912
               BOUNDARY FLUXES WILL BE SAVED ON UNIT  6912
               MAX NUMBER OF LGR ITERATIONS = 30
               LGR ITERATION RESULTS WRITTEN TO SCREEN: IOUTLGR =  -1

               WEIGHTING FACTORS FOR RELAXATION
               RELAXH(HEAD) RELAXF(FLUX)
               -------------------------
               0.500E+00      0.500E+00

               CLOSURE CRITERIA FOR LGR ITERATIONS
               HCLOSELGR       FCLOSELGR
               -------------------------
               5.000E-04      1.000E+00

               STARTING LAYER, ROW, COLUMN=   1,  18,  10
               ENDING LAYER, ROW, COLUMN=     4,  18,  13
               NCPP: NUMBER OF CHILD CELLS PER WIDTH OF PARENT CELL= 3
               NCPPL: NUMBER OF CHILD LAYERS IN LAYER  1 OF PARENT = 1
               NCPPL: NUMBER OF CHILD LAYERS IN LAYER  2 OF PARENT = 1
               NCPPL: NUMBER OF CHILD LAYERS IN LAYER  3 OF PARENT = 1
               NCPPL: NUMBER OF CHILD LAYERS IN LAYER  4 OF PARENT = 1

 LPF -- LAYER-PROPERTY FLOW PACKAGE, VERSION 7, 5/2/2005
         INPUT READ FROM UNIT  912
 CELL-BY-CELL FLOWS WILL BE SAVED ON UNIT 7012
 HEAD AT CELLS THAT CONVERT TO DRY=   2222.0    
 No named parameters

   LAYER FLAGS:
 LAYER       LAYTYP        LAYAVG         CHANI        LAYVKA        LAYWET
 ---------------------------------------------------------------------------
    1             1             0     1.000E+00             1             0
    2             0             0     1.000E+00             1             0
    3             0             0     1.000E+00             1             0
    4             0             0     1.000E+00             1             0

   INTERPRETATION OF LAYER FLAGS:
                        INTERBLOCK     HORIZONTAL    DATA IN
         LAYER TYPE   TRANSMISSIVITY   ANISOTROPY   ARRAY VKA   WETTABILITY
 LAYER      (LAYTYP)      (LAYAVG)       (CHANI)      (LAYVKA)      (LAYWET)
 ---------------------------------------------------------------------------
    1   CONVERTIBLE      HARMONIC     1.000E+00    ANISOTROPY  NON-WETTABLE
    2      CONFINED      HARMONIC     1.000E+00    ANISOTROPY  NON-WETTABLE
    3      CONFINED      HARMONIC     1.000E+00    ANISOTROPY  NON-WETTABLE
    4      CONFINED      HARMONIC     1.000E+00    ANISOTROPY  NON-WETTABLE

 WETTING CAPABILITY IS NOT ACTIVE IN ANY LAYER

    HYD. COND. ALONG ROWS =   10.0000     FOR LAYER   1

  HORIZ. TO VERTICAL ANI. =   1.00000     FOR LAYER   1

         SPECIFIC STORAGE =  1.000000E-05 FOR LAYER   1

           SPECIFIC YIELD =  2.000000E-02 FOR LAYER   1

 QUASI3D VERT. HYD. COND. =  2.000000E-03 FOR LAYER   1

    HYD. COND. ALONG ROWS =   1.50000     FOR LAYER   2

  HORIZ. TO VERTICAL ANI. =   1.00000     FOR LAYER   2

         SPECIFIC STORAGE =  1.000000E-05 FOR LAYER   2

 QUASI3D VERT. HYD. COND. =  1.000000E-03 FOR LAYER   2

    HYD. COND. ALONG ROWS =   1.00000     FOR LAYER   3

  HORIZ. TO VERTICAL ANI. =   1.00000     FOR LAYER   3

         SPECIFIC STORAGE =  1.000000E-05 FOR LAYER   3

 QUASI3D VERT. HYD. COND. =  5.000000E-04 FOR LAYER   3

    HYD. COND. ALONG ROWS =  0.150000     FOR LAYER   4

  HORIZ. TO VERTICAL ANI. =   1.00000     FOR LAYER   4

         SPECIFIC STORAGE =  1.000000E-05 FOR LAYER   4

 PCG -- CONJUGATE-GRADIENT SOLUTION PACKAGE, VERSION 7, 5/2/2005
 MAXIMUM OF    100 CALLS OF SOLUTION ROUTINE
 MAXIMUM OF    100 INTERNAL ITERATIONS PER CALL TO SOLUTION ROUTINE
 MATRIX PRECONDITIONING TYPE :    1



                                    SOLUTION BY THE CONJUGATE-GRADIENT METHOD
                                   -------------------------------------------
                    MAXIMUM NUMBER OF CALLS TO PCG ROUTINE =      100
                        MAXIMUM ITERATIONS PER CALL TO PCG =      100
                               MATRIX PRECONDITIONING TYPE =        1
        RELAXATION FACTOR (ONLY USED WITH PRECOND. TYPE 1) =    0.10000E+01
 PARAMETER OF POLYNOMIAL PRECOND. = 2 (2) OR IS CALCULATED :        2
                         HEAD CHANGE CRITERION FOR CLOSURE =    0.10000E-03
                     RESIDUAL CHANGE CRITERION FOR CLOSURE =    0.10000E+00
            PCG HEAD AND RESIDUAL CHANGE PRINTOUT INTERVAL =        1
     PRINTING FROM SOLVER IS LIMITED(1) OR SUPPRESSED (>1) =        1
                            STEADY-STATE DAMPING PARAMETER =    0.10000E+01
                               TRANSIENT DAMPING PARAMETER =    0.10000E+01
1
                            STRESS PERIOD NO.      1, LENGTH =   30.42000    
                            -----------------------------------------------

                              NUMBER OF TIME STEPS =     2

                               MULTIPLIER FOR DELT =     1.000

                            INITIAL TIME STEP SIZE =   15.21000    

PARAMETERS HAVE BEEN USED IN PACKAGES
THE CURRENT STORAGE FOR PARAMETERS IS: 
# PARAMETER=         0 WITH MAX STORAGE (MXPAR)  OF      2000
# INSTANCES=         0 WITH MAX STORAGE (MXINST) OF     50000
# CLUSTERS =         0 WITH MAX STORAGE (MXCLST) OF   2000000
YOU CAN INCREASE/DECREASE STORAGE WITH BAS OPTION:
MAXPARAM  MXPAR  MXCLST MXINST
 
 SOLVING FOR HEAD 


     3 CALLS TO PCG ROUTINE FOR TIME STEP   1 IN STRESS PERIOD    1
     9 TOTAL ITERATIONS


     2 CALLS TO PCG ROUTINE FOR TIME STEP   1 IN STRESS PERIOD    1
     5 TOTAL ITERATIONS


     2 CALLS TO PCG ROUTINE FOR TIME STEP   1 IN STRESS PERIOD    1
     4 TOTAL ITERATIONS


     2 CALLS TO PCG ROUTINE FOR TIME STEP   1 IN STRESS PERIOD    1
     4 TOTAL ITERATIONS


     2 CALLS TO PCG ROUTINE FOR TIME STEP   1 IN STRESS PERIOD    1
     3 TOTAL ITERATIONS


     2 CALLS TO PCG ROUTINE FOR TIME STEP   1 IN STRESS PERIOD    1
     3 TOTAL ITERATIONS


     2 CALLS TO PCG ROUTINE FOR TIME STEP   1 IN STRESS PERIOD    1
     3 TOTAL ITERATIONS


     1 CALLS TO PCG ROUTINE FOR TIME STEP   1 IN STRESS PERIOD    1
     1 TOTAL ITERATIONS


     1 CALLS TO PCG ROUTINE FOR TIME STEP   1 IN STRESS PERIOD    1
     1 TOTAL ITERATIONS


     1 CALLS TO PCG ROUTINE FOR TIME STEP   1 IN STRESS PERIOD    1
     1 TOTAL ITERATIONS


     1 CALLS TO PCG ROUTINE FOR TIME STEP   1 IN STRESS PERIOD    1
     1 TOTAL ITERATIONS

 OUTPUT CONTROL FOR STRESS PERIOD      1   TIME STEP     1
    SAVE HEAD FOR ALL LAYERS
    SAVE BUDGET
 UBDSV1 SAVING "         STORAGE" ON UNIT7012 AT TIME STEP    1, STRESS PERIOD   1
 UBDSV2 SAVING "   CONSTANT HEAD" ON UNIT7012 AT TIME STEP    1, STRESS PERIOD   1
 UBDSV1 SAVING "FLOW RIGHT FACE " ON UNIT7012 AT TIME STEP    1, STRESS PERIOD   1
 UBDSV1 SAVING "FLOW FRONT FACE " ON UNIT7012 AT TIME STEP    1, STRESS PERIOD   1
 UBDSV1 SAVING "FLOW LOWER FACE " ON UNIT7012 AT TIME STEP    1, STRESS PERIOD   1
 UBDSV4 SAVING " GHOST-NODE HEAD" ON UNIT7012 AT TIME STEP    1, STRESS PERIOD   1

 HEAD WILL BE SAVED ON UNIT 2212 AT END OF TIME STEP     1, STRESS PERIOD      1
1
  FLUX ACROSS PARENT-CHILD INTERFACE AT TIME STEP  1 IN STRESS PERIOD    1
  ------------------------------------------------------------------------
 G-N FLUX        PARENT        CHILD         DIFFERENCE      % DIFFERENCE
  RATE IN:      1.3374E+03    1.3374E+03     5.8228E-02        0.0044
 RATE OUT:      1.4651E+03    1.4652E+03    -7.1167E-02       -0.0049
 
 SOLVING FOR HEAD 
     2 CALLS TO PCG ROUTINE FOR TIME STEP   2 IN STRESS PERIOD    1
     5 TOTAL ITERATIONS
     2 CALLS TO PCG ROUTINE FOR TIME STEP   2 IN STRESS PERIOD    1
     5 TOTAL ITERATIONS
     2 CALLS TO PCG ROUTINE FOR TIME STEP   2 IN STRESS PERIOD    1
     4 TOTAL ITERATIONS
     2 CALLS TO PCG ROUTINE FOR TIME STEP   2 IN STRESS PERIOD    1
     4 TOTAL ITERATIONS
     2 CALLS TO PCG ROUTINE FOR TIME STEP   2 IN STRESS PERIOD    1
     4 TOTAL ITERATIONS
     2 CALLS TO PCG ROUTINE FOR TIME STEP   2 IN STRESS PERIOD    1
     3 TOTAL ITERATIONS
     2 CALLS TO PCG ROUTINE FOR TIME STEP   2 IN STRESS PERIOD    1
     3 TOTAL ITERATIONS
     2 CALLS TO PCG ROUTINE FOR TIME STEP   2 IN STRESS PERIOD    1
     3 TOTAL ITERATIONS
     2 CALLS TO PCG ROUTINE FOR TIME STEP   2 IN STRESS PERIOD    1
     3 TOTAL ITERATIONS
     1 CALLS TO PCG ROUTINE FOR TIME STEP   2 IN STRESS PERIOD    1
     1 TOTAL ITERATIONS

 OUTPUT CONTROL FOR STRESS PERIOD      1   TIME STEP     2
    SAVE BUDGET
 UBDSV1 SAVING "         STORAGE" ON UNIT7012 AT TIME STEP    2, STRESS PERIOD   1
 UBDSV2 SAVING "   CONSTANT HEAD" ON UNIT7012 AT TIME STEP    2, STRESS PERIOD   1
 UBDSV1 SAVING "FLOW RIGHT FACE " ON UNIT7012 AT TIME STEP    2, STRESS PERIOD   1
 UBDSV1 SAVING "FLOW FRONT FACE " ON UNIT7012 AT TIME STEP    2, STRESS PERIOD   1
 UBDSV1 SAVING "FLOW LOWER FACE " ON UNIT7012 AT TIME STEP    2, STRESS PERIOD   1
 UBDSV4 SAVING " GHOST-NODE HEAD" ON UNIT7012 AT TIME STEP    2, STRESS PERIOD   1
1
  VOLUMETRIC BUDGET FOR ENTIRE MODEL AT END OF TIME STEP    2 IN STRESS PERIOD      1
  ------------------------------------------------------------------------------

     CUMULATIVE VOLUMES      L**3       RATES FOR THIS TIME STEP      L**3/T
     ------------------                 ------------------------

           IN:                                      IN:
           ---                                      ---
             STORAGE =        3372.4355               STORAGE =           0.0000
       CONSTANT HEAD =           0.0000         CONSTANT HEAD =           0.0000
     GHOST-NODE HEAD =       43000.0156       GHOST-NODE HEAD =        1489.7303

            TOTAL IN =       46372.4531              TOTAL IN =        1489.7303

          OUT:                                     OUT:
          ----                                     ----
             STORAGE =        2715.9028               STORAGE =          84.6836
       CONSTANT HEAD =           0.0000         CONSTANT HEAD =           0.0000
     GHOST-NODE HEAD =       43656.3906       GHOST-NODE HEAD =        1405.0581

           TOTAL OUT =       46372.2930             TOTAL OUT =        1489.7417

            IN - OUT =           0.1602              IN - OUT =      -1.1353E-02

 PERCENT DISCREPANCY =           0.00     PERCENT DISCREPANCY =          -0.00






          TIME SUMMARY AT END OF TIME STEP     2 IN STRESS PERIOD      1
                    SECONDS     MINUTES      HOURS       DAYS        YEARS
                    -----------------------------------------------------------
   TIME STEP LENGTH 1.31414E+06  21902.      365.04      15.210     4.16427E-02
 STRESS PERIOD TIME 2.62829E+06  43805.      730.08      30.420     8.32854E-02
         TOTAL TIME 2.62829E+06  43805.      730.08      30.420     8.32854E-02
1
1
  FLUX ACROSS PARENT-CHILD INTERFACE AT TIME STEP  2 IN STRESS PERIOD    1
  ------------------------------------------------------------------------
 G-N FLUX        PARENT        CHILD         DIFFERENCE      % DIFFERENCE
  RATE IN:      1.4896E+03    1.4897E+03    -1.0889E-01       -0.0073
 RATE OUT:      1.4052E+03    1.4051E+03     1.4587E-01        0.0104
1
                            STRESS PERIOD NO.      2, LENGTH =   30.42000    
                            -----------------------------------------------

                              NUMBER OF TIME STEPS =     2

                               MULTIPLIER FOR DELT =     1.000

                            INITIAL TIME STEP SIZE =   15.21000    
 
 SOLVING FOR HEAD 


     3 CALLS TO PCG ROUTINE FOR TIME STEP   1 IN STRESS PERIOD    2
     7 TOTAL ITERATIONS


     2 CALLS TO PCG ROUTINE FOR TIME STEP   1 IN STRESS PERIOD    2
     5 TOTAL ITERATIONS


     2 CALLS TO PCG ROUTINE FOR TIME STEP   1 IN STRESS PERIOD    2
     4 TOTAL ITERATIONS


     2 CALLS TO PCG ROUTINE FOR TIME STEP   1 IN STRESS PERIOD    2
     4 TOTAL ITERATIONS


     2 CALLS TO PCG ROUTINE FOR TIME STEP   1 IN STRESS PERIOD    2
     4 TOTAL ITERATIONS


     2 CALLS TO PCG ROUTINE FOR TIME STEP   1 IN STRESS PERIOD    2
     3 TOTAL ITERATIONS


     2 CALLS TO PCG ROUTINE FOR TIME STEP   1 IN STRESS PERIOD    2
     3 TOTAL ITERATIONS


     2 CALLS TO PCG ROUTINE FOR TIME STEP   1 IN STRESS PERIOD    2
     3 TOTAL ITERATIONS


     1 CALLS TO PCG ROUTINE FOR TIME STEP   1 IN STRESS PERIOD    2
     1 TOTAL ITERATIONS


     1 CALLS TO PCG ROUTINE FOR TIME STEP   1 IN STRESS PERIOD    2
     1 TOTAL ITERATIONS

 OUTPUT CONTROL FOR STRESS PERIOD      2   TIME STEP     1
    SAVE BUDGET
 UBDSV1 SAVING "         STORAGE" ON UNIT7012 AT TIME STEP    1, STRESS PERIOD   2
 UBDSV2 SAVING "   CONSTANT HEAD" ON UNIT7012 AT TIME STEP    1, STRESS PERIOD   2
 UBDSV1 SAVING "FLOW RIGHT FACE " ON UNIT7012 AT TIME STEP    1, STRESS PERIOD   2
 UBDSV1 SAVING "FLOW FRONT FACE " ON UNIT7012 AT TIME STEP    1, STRESS PERIOD   2
 UBDSV1 SAVING "FLOW LOWER FACE " ON UNIT7012 AT TIME STEP    1, STRESS PERIOD   2
 UBDSV4 SAVING " GHOST-NODE HEAD" ON UNIT7012 AT TIME STEP    1, STRESS PERIOD   2
1
  FLUX ACROSS PARENT-CHILD INTERFACE AT TIME STEP  1 IN STRESS PERIOD    2
  ------------------------------------------------------------------------
 G-N FLUX        PARENT        CHILD         DIFFERENCE      % DIFFERENCE
  RATE IN:      1.5469E+03    1.5472E+03    -2.7612E-01       -0.0178
 RATE OUT:      1.4046E+03    1.4043E+03     3.1946E-01        0.0227
 
 SOLVING FOR HEAD 
     2 CALLS TO PCG ROUTINE FOR TIME STEP   2 IN STRESS PERIOD    2
     5 TOTAL ITERATIONS
     2 CALLS TO PCG ROUTINE FOR TIME STEP   2 IN STRESS PERIOD    2
     5 TOTAL ITERATIONS
     2 CALLS TO PCG ROUTINE FOR TIME STEP   2 IN STRESS PERIOD    2
     4 TOTAL ITERATIONS
     2 CALLS TO PCG ROUTINE FOR TIME STEP   2 IN STRESS PERIOD    2
     4 TOTAL ITERATIONS
     2 CALLS TO PCG ROUTINE FOR TIME STEP   2 IN STRESS PERIOD    2
     4 TOTAL ITERATIONS
     2 CALLS TO PCG ROUTINE FOR TIME STEP   2 IN STRESS PERIOD    2
     3 TOTAL ITERATIONS
     2 CALLS TO PCG ROUTINE FOR TIME STEP   2 IN STRESS PERIOD    2
     3 TOTAL ITERATIONS
     2 CALLS TO PCG ROUTINE FOR TIME STEP   2 IN STRESS PERIOD    2
     3 TOTAL ITERATIONS
     1 CALLS TO PCG ROUTINE FOR TIME STEP   2 IN STRESS PERIOD    2
     1 TOTAL ITERATIONS

 OUTPUT CONTROL FOR STRESS PERIOD      2   TIME STEP     2
    SAVE BUDGET
 UBDSV1 SAVING "         STORAGE" ON UNIT7012 AT TIME STEP    2, STRESS PERIOD   2
 UBDSV2 SAVING "   CONSTANT HEAD" ON UNIT7012 AT TIME STEP    2, STRESS PERIOD   2
 UBDSV1 SAVING "FLOW RIGHT FACE " ON UNIT7012 AT TIME STEP    2, STRESS PERIOD   2
 UBDSV1 SAVING "FLOW FRONT FACE " ON UNIT7012 AT TIME STEP    2, STRESS PERIOD   2
 UBDSV1 SAVING "FLOW LOWER FACE " ON UNIT7012 AT TIME STEP    2, STRESS PERIOD   2
 UBDSV4 SAVING " GHOST-NODE HEAD" ON UNIT7012 AT TIME STEP    2, STRESS PERIOD   2
1
  VOLUMETRIC BUDGET FOR ENTIRE MODEL AT END OF TIME STEP    2 IN STRESS PERIOD      2
  ------------------------------------------------------------------------------

     CUMULATIVE VOLUMES      L**3       RATES FOR THIS TIME STEP      L**3/T
     ------------------                 ------------------------

           IN:                                      IN:
           ---                                      ---
             STORAGE =        3372.4355               STORAGE =           0.0000
       CONSTANT HEAD =           0.0000         CONSTANT HEAD =           0.0000
     GHOST-NODE HEAD =       90206.8125       GHOST-NODE HEAD =        1556.4932

            TOTAL IN =       93579.2500              TOTAL IN =        1556.4932

          OUT:                                     OUT:
          ----                                     ----
             STORAGE =        6403.8887               STORAGE =          99.5953
       CONSTANT HEAD =           0.0000         CONSTANT HEAD =           0.0000
     GHOST-NODE HEAD =       87175.3984       GHOST-NODE HEAD =        1456.9025

           TOTAL OUT =       93579.2891             TOTAL OUT =        1556.4978

            IN - OUT =      -3.9062E-02              IN - OUT =      -4.6387E-03

 PERCENT DISCREPANCY =          -0.00     PERCENT DISCREPANCY =          -0.00






          TIME SUMMARY AT END OF TIME STEP     2 IN STRESS PERIOD      2
                    SECONDS     MINUTES      HOURS       DAYS        YEARS
                    -----------------------------------------------------------
   TIME STEP LENGTH 1.31414E+06  21902.      365.04      15.210     4.16427E-02
 STRESS PERIOD TIME 2.62829E+06  43805.      730.08      30.420     8.32854E-02
         TOTAL TIME 5.25658E+06  87610.      1460.2      60.840     0.16657    
1
1
  FLUX ACROSS PARENT-CHILD INTERFACE AT TIME STEP  2 IN STRESS PERIOD    2
  ------------------------------------------------------------------------
 G-N FLUX        PARENT        CHILD         DIFFERENCE      % DIFFERENCE
  RATE IN:      1.5563E+03    1.5565E+03    -2.4109E-01       -0.0155
 RATE OUT:      1.4575E+03    1.4569E+03     5.5066E-01        0.0378
1
                            STRESS PERIOD NO.      3, LENGTH =   30.42000    
                            -----------------------------------------------

                              NUMBER OF TIME STEPS =     2

                               MULTIPLIER FOR DELT =     1.000

                            INITIAL TIME STEP SIZE =   15.21000    
 
 SOLVING FOR HEAD 


     3 CALLS TO PCG ROUTINE FOR TIME STEP   1 IN STRESS PERIOD    3
     8 TOTAL ITERATIONS


     3 CALLS TO PCG ROUTINE FOR TIME STEP   1 IN STRESS PERIOD    3
     8 TOTAL ITERATIONS


     2 CALLS TO PCG ROUTINE FOR TIME STEP   1 IN STRESS PERIOD    3
     5 TOTAL ITERATIONS


     2 CALLS TO PCG ROUTINE FOR TIME STEP   1 IN STRESS PERIOD    3
     4 TOTAL ITERATIONS


     2 CALLS TO PCG ROUTINE FOR TIME STEP   1 IN STRESS PERIOD    3
     4 TOTAL ITERATIONS


     2 CALLS TO PCG ROUTINE FOR TIME STEP   1 IN STRESS PERIOD    3
     4 TOTAL ITERATIONS


     2 CALLS TO PCG ROUTINE FOR TIME STEP   1 IN STRESS PERIOD    3
     3 TOTAL ITERATIONS


     2 CALLS TO PCG ROUTINE FOR TIME STEP   1 IN STRESS PERIOD    3
     3 TOTAL ITERATIONS


     2 CALLS TO PCG ROUTINE FOR TIME STEP   1 IN STRESS PERIOD    3
     3 TOTAL ITERATIONS


     2 CALLS TO PCG ROUTINE FOR TIME STEP   1 IN STRESS PERIOD    3
     3 TOTAL ITERATIONS

 OUTPUT CONTROL FOR STRESS PERIOD      3   TIME STEP     1
    SAVE BUDGET
 UBDSV1 SAVING "         STORAGE" ON UNIT7012 AT TIME STEP    1, STRESS PERIOD   3
 UBDSV2 SAVING "   CONSTANT HEAD" ON UNIT7012 AT TIME STEP    1, STRESS PERIOD   3
 UBDSV1 SAVING "FLOW RIGHT FACE " ON UNIT7012 AT TIME STEP    1, STRESS PERIOD   3
 UBDSV1 SAVING "FLOW FRONT FACE " ON UNIT7012 AT TIME STEP    1, STRESS PERIOD   3
 UBDSV1 SAVING "FLOW LOWER FACE " ON UNIT7012 AT TIME STEP    1, STRESS PERIOD   3
 UBDSV4 SAVING " GHOST-NODE HEAD" ON UNIT7012 AT TIME STEP    1, STRESS PERIOD   3
1
  FLUX ACROSS PARENT-CHILD INTERFACE AT TIME STEP  1 IN STRESS PERIOD    3
  ------------------------------------------------------------------------
 G-N FLUX        PARENT        CHILD         DIFFERENCE      % DIFFERENCE
  RATE IN:      1.2329E+03    1.2325E+03     4.1235E-01        0.0335
 RATE OUT:      1.5315E+03    1.5319E+03    -4.6765E-01       -0.0305
 
 SOLVING FOR HEAD 
     3 CALLS TO PCG ROUTINE FOR TIME STEP   2 IN STRESS PERIOD    3
     8 TOTAL ITERATIONS
     2 CALLS TO PCG ROUTINE FOR TIME STEP   2 IN STRESS PERIOD    3
     5 TOTAL ITERATIONS
     2 CALLS TO PCG ROUTINE FOR TIME STEP   2 IN STRESS PERIOD    3
     5 TOTAL ITERATIONS
     2 CALLS TO PCG ROUTINE FOR TIME STEP   2 IN STRESS PERIOD    3
     4 TOTAL ITERATIONS
     2 CALLS TO PCG ROUTINE FOR TIME STEP   2 IN STRESS PERIOD    3
     4 TOTAL ITERATIONS
     2 CALLS TO PCG ROUTINE FOR TIME STEP   2 IN STRESS PERIOD    3
     4 TOTAL ITERATIONS
     2 CALLS TO PCG ROUTINE FOR TIME STEP   2 IN STRESS PERIOD    3
     3 TOTAL ITERATIONS
     2 CALLS TO PCG ROUTINE FOR TIME STEP   2 IN STRESS PERIOD    3
     3 TOTAL ITERATIONS
     2 CALLS TO PCG ROUTINE FOR TIME STEP   2 IN STRESS PERIOD    3
     3 TOTAL ITERATIONS

 OUTPUT CONTROL FOR STRESS PERIOD      3   TIME STEP     2
    PRINT BUDGET
    SAVE HEAD FOR ALL LAYERS
    SAVE BUDGET
 UBDSV1 SAVING "         STORAGE" ON UNIT7012 AT TIME STEP    2, STRESS PERIOD   3
 UBDSV2 SAVING "   CONSTANT HEAD" ON UNIT7012 AT TIME STEP    2, STRESS PERIOD   3
 UBDSV1 SAVING "FLOW RIGHT FACE " ON UNIT7012 AT TIME STEP    2, STRESS PERIOD   3
 UBDSV1 SAVING "FLOW FRONT FACE " ON UNIT7012 AT TIME STEP    2, STRESS PERIOD   3
 UBDSV1 SAVING "FLOW LOWER FACE " ON UNIT7012 AT TIME STEP    2, STRESS PERIOD   3
 UBDSV4 SAVING " GHOST-NODE HEAD" ON UNIT7012 AT TIME STEP    2, STRESS PERIOD   3

 HEAD WILL BE SAVED ON UNIT 2212 AT END OF TIME STEP     2, STRESS PERIOD      3
1
  VOLUMETRIC BUDGET FOR ENTIRE MODEL AT END OF TIME STEP    2 IN STRESS PERIOD      3
  ------------------------------------------------------------------------------

     CUMULATIVE VOLUMES      L**3       RATES FOR THIS TIME STEP      L**3/T
     ------------------                 ------------------------

           IN:                                      IN:
           ---                                      ---
             STORAGE =       11392.6895               STORAGE =         227.8269
       CONSTANT HEAD =           0.0000         CONSTANT HEAD =           0.0000
     GHOST-NODE HEAD =      126686.5859       GHOST-NODE HEAD =        1165.9448

            TOTAL IN =      138079.2812              TOTAL IN =        1393.7717

          OUT:                                     OUT:
          ----                                     ----
             STORAGE =        6403.8887               STORAGE =           0.0000
       CONSTANT HEAD =           0.0000         CONSTANT HEAD =           0.0000
     GHOST-NODE HEAD =      131675.2344       GHOST-NODE HEAD =        1393.7673

           TOTAL OUT =      138079.1250             TOTAL OUT =        1393.7673

            IN - OUT =           0.1562              IN - OUT =       4.3945E-03

 PERCENT DISCREPANCY =           0.00     PERCENT DISCREPANCY =           0.00






          TIME SUMMARY AT END OF TIME STEP     2 IN STRESS PERIOD      3
                    SECONDS     MINUTES      HOURS       DAYS        YEARS
                    -----------------------------------------------------------
   TIME STEP LENGTH 1.31414E+06  21902.      365.04      15.210     4.16427E-02
 STRESS PERIOD TIME 2.62829E+06  43805.      730.08      30.420     8.32854E-02
         TOTAL TIME 7.88486E+06 1.31414E+05  2190.2      91.260     0.24986    
1
1
  FLUX ACROSS PARENT-CHILD INTERFACE AT TIME STEP  2 IN STRESS PERIOD    3
  ------------------------------------------------------------------------
 G-N FLUX        PARENT        CHILD         DIFFERENCE      % DIFFERENCE
  RATE IN:      1.1665E+03    1.1659E+03     5.0806E-01        0.0436
 RATE OUT:      1.3926E+03    1.3938E+03    -1.2103E+00       -0.0869
1
                            STRESS PERIOD NO.      4, LENGTH =   30.42000    
                            -----------------------------------------------

                              NUMBER OF TIME STEPS =     2

                               MULTIPLIER FOR DELT =     1.000

                            INITIAL TIME STEP SIZE =   15.21000    
 
 SOLVING FOR HEAD 


     3 CALLS TO PCG ROUTINE FOR TIME STEP   1 IN STRESS PERIOD    4
     8 TOTAL ITERATIONS


     2 CALLS TO PCG ROUTINE FOR TIME STEP   1 IN STRESS PERIOD    4
     5 TOTAL ITERATIONS


     2 CALLS TO PCG ROUTINE FOR TIME STEP   1 IN STRESS PERIOD    4
     5 TOTAL ITERATIONS


     2 CALLS TO PCG ROUTINE FOR TIME STEP   1 IN STRESS PERIOD    4
     4 TOTAL ITERATIONS


     2 CALLS TO PCG ROUTINE FOR TIME STEP   1 IN STRESS PERIOD    4
     4 TOTAL ITERATIONS


     2 CALLS TO PCG ROUTINE FOR TIME STEP   1 IN STRESS PERIOD    4
     4 TOTAL ITERATIONS


     2 CALLS TO PCG ROUTINE FOR TIME STEP   1 IN STRESS PERIOD    4
     3 TOTAL ITERATIONS


     2 CALLS TO PCG ROUTINE FOR TIME STEP   1 IN STRESS PERIOD    4
     3 TOTAL ITERATIONS


     2 CALLS TO PCG ROUTINE FOR TIME STEP   1 IN STRESS PERIOD    4
     3 TOTAL ITERATIONS


     1 CALLS TO PCG ROUTINE FOR TIME STEP   1 IN STRESS PERIOD    4
     1 TOTAL ITERATIONS


     1 CALLS TO PCG ROUTINE FOR TIME STEP   1 IN STRESS PERIOD    4
     1 TOTAL ITERATIONS


     1 CALLS TO PCG ROUTINE FOR TIME STEP   1 IN STRESS PERIOD    4
     1 TOTAL ITERATIONS


     1 CALLS TO PCG ROUTINE FOR TIME STEP   1 IN STRESS PERIOD    4
     1 TOTAL ITERATIONS


     1 CALLS TO PCG ROUTINE FOR TIME STEP   1 IN STRESS PERIOD    4
     1 TOTAL ITERATIONS

 OUTPUT CONTROL FOR STRESS PERIOD      4   TIME STEP     1
    SAVE BUDGET
 UBDSV1 SAVING "         STORAGE" ON UNIT7012 AT TIME STEP    1, STRESS PERIOD   4
 UBDSV2 SAVING "   CONSTANT HEAD" ON UNIT7012 AT TIME STEP    1, STRESS PERIOD   4
 UBDSV1 SAVING "FLOW RIGHT FACE " ON UNIT7012 AT TIME STEP    1, STRESS PERIOD   4
 UBDSV1 SAVING "FLOW FRONT FACE " ON UNIT7012 AT TIME STEP    1, STRESS PERIOD   4
 UBDSV1 SAVING "FLOW LOWER FACE " ON UNIT7012 AT TIME STEP    1, STRESS PERIOD   4
 UBDSV4 SAVING " GHOST-NODE HEAD" ON UNIT7012 AT TIME STEP    1, STRESS PERIOD   4
1
  FLUX ACROSS PARENT-CHILD INTERFACE AT TIME STEP  1 IN STRESS PERIOD    4
  ------------------------------------------------------------------------
 G-N FLUX        PARENT        CHILD         DIFFERENCE      % DIFFERENCE
  RATE IN:      1.0572E+03    1.0571E+03     5.2490E-02        0.0050
 RATE OUT:      1.2756E+03    1.2757E+03    -1.3062E-02       -0.0010
 
 SOLVING FOR HEAD 
     3 CALLS TO PCG ROUTINE FOR TIME STEP   2 IN STRESS PERIOD    4
     7 TOTAL ITERATIONS
     2 CALLS TO PCG ROUTINE FOR TIME STEP   2 IN STRESS PERIOD    4
     5 TOTAL ITERATIONS
     2 CALLS TO PCG ROUTINE FOR TIME STEP   2 IN STRESS PERIOD    4
     5 TOTAL ITERATIONS
     2 CALLS TO PCG ROUTINE FOR TIME STEP   2 IN STRESS PERIOD    4
     4 TOTAL ITERATIONS
     2 CALLS TO PCG ROUTINE FOR TIME STEP   2 IN STRESS PERIOD    4
     4 TOTAL ITERATIONS
     2 CALLS TO PCG ROUTINE FOR TIME STEP   2 IN STRESS PERIOD    4
     4 TOTAL ITERATIONS
     2 CALLS TO PCG ROUTINE FOR TIME STEP   2 IN STRESS PERIOD    4
     3 TOTAL ITERATIONS
     2 CALLS TO PCG ROUTINE FOR TIME STEP   2 IN STRESS PERIOD    4
     3 TOTAL ITERATIONS
     2 CALLS TO PCG ROUTINE FOR TIME STEP   2 IN STRESS PERIOD    4
     3 TOTAL ITERATIONS
     1 CALLS TO PCG ROUTINE FOR TIME STEP   2 IN STRESS PERIOD    4
     1 TOTAL ITERATIONS
     1 CALLS TO PCG ROUTINE FOR TIME STEP   2 IN STRESS PERIOD    4
     1 TOTAL ITERATIONS
     1 CALLS TO PCG ROUTINE FOR TIME STEP   2 IN STRESS PERIOD    4
     1 TOTAL ITERATIONS
     1 CALLS TO PCG ROUTINE FOR TIME STEP   2 IN STRESS PERIOD    4
     1 TOTAL ITERATIONS

 OUTPUT CONTROL FOR STRESS PERIOD      4   TIME STEP     2
    SAVE BUDGET
 UBDSV1 SAVING "         STORAGE" ON UNIT7012 AT TIME STEP    2, STRESS PERIOD   4
 UBDSV2 SAVING "   CONSTANT HEAD" ON UNIT7012 AT TIME STEP    2, STRESS PERIOD   4
 UBDSV1 SAVING "FLOW RIGHT FACE " ON UNIT7012 AT TIME STEP    2, STRESS PERIOD   4
 UBDSV1 SAVING "FLOW FRONT FACE " ON UNIT7012 AT TIME STEP    2, STRESS PERIOD   4
 UBDSV1 SAVING "FLOW LOWER FACE " ON UNIT7012 AT TIME STEP    2, STRESS PERIOD   4
 UBDSV4 SAVING " GHOST-NODE HEAD" ON UNIT7012 AT TIME STEP    2, STRESS PERIOD   4
1
  VOLUMETRIC BUDGET FOR ENTIRE MODEL AT END OF TIME STEP    2 IN STRESS PERIOD      4
  ------------------------------------------------------------------------------

     CUMULATIVE VOLUMES      L**3       RATES FOR THIS TIME STEP      L**3/T
     ------------------                 ------------------------

           IN:                                      IN:
           ---                                      ---
             STORAGE =       17137.9180               STORAGE =         159.1896
       CONSTANT HEAD =           0.0000         CONSTANT HEAD =           0.0000
     GHOST-NODE HEAD =      158441.4062       GHOST-NODE HEAD =        1030.6296

            TOTAL IN =      175579.3281              TOTAL IN =        1189.8193

          OUT:                                     OUT:
          ----                                     ----
             STORAGE =        6403.8887               STORAGE =           0.0000
       CONSTANT HEAD =           0.0000         CONSTANT HEAD =           0.0000
     GHOST-NODE HEAD =      169175.3750       GHOST-NODE HEAD =        1189.8297

           TOTAL OUT =      175579.2656             TOTAL OUT =        1189.8297

            IN - OUT =       6.2500E-02              IN - OUT =      -1.0376E-02

 PERCENT DISCREPANCY =           0.00     PERCENT DISCREPANCY =          -0.00






          TIME SUMMARY AT END OF TIME STEP     2 IN STRESS PERIOD      4
                    SECONDS     MINUTES      HOURS       DAYS        YEARS
                    -----------------------------------------------------------
   TIME STEP LENGTH 1.31414E+06  21902.      365.04      15.210     4.16427E-02
 STRESS PERIOD TIME 2.62829E+06  43805.      730.08      30.420     8.32854E-02
         TOTAL TIME 1.05132E+07 1.75219E+05  2920.3      121.68     0.33314    
1
1
  FLUX ACROSS PARENT-CHILD INTERFACE AT TIME STEP  2 IN STRESS PERIOD    4
  ------------------------------------------------------------------------
 G-N FLUX        PARENT        CHILD         DIFFERENCE      % DIFFERENCE
  RATE IN:      1.0307E+03    1.0306E+03     6.5063E-02        0.0063
 RATE OUT:      1.1898E+03    1.1898E+03    -1.5259E-02       -0.0013
1
                            STRESS PERIOD NO.      5, LENGTH =   30.42000    
                            -----------------------------------------------

                              NUMBER OF TIME STEPS =     2

                               MULTIPLIER FOR DELT =     1.000

                            INITIAL TIME STEP SIZE =   15.21000    
 
 SOLVING FOR HEAD 


     2 CALLS TO PCG ROUTINE FOR TIME STEP   1 IN STRESS PERIOD    5
     6 TOTAL ITERATIONS


     2 CALLS TO PCG ROUTINE FOR TIME STEP   1 IN STRESS PERIOD    5
     5 TOTAL ITERATIONS


     2 CALLS TO PCG ROUTINE FOR TIME STEP   1 IN STRESS PERIOD    5
     5 TOTAL ITERATIONS


     2 CALLS TO PCG ROUTINE FOR TIME STEP   1 IN STRESS PERIOD    5
     4 TOTAL ITERATIONS


     2 CALLS TO PCG ROUTINE FOR TIME STEP   1 IN STRESS PERIOD    5
     4 TOTAL ITERATIONS


     2 CALLS TO PCG ROUTINE FOR TIME STEP   1 IN STRESS PERIOD    5
     4 TOTAL ITERATIONS


     2 CALLS TO PCG ROUTINE FOR TIME STEP   1 IN STRESS PERIOD    5
     3 TOTAL ITERATIONS


     2 CALLS TO PCG ROUTINE FOR TIME STEP   1 IN STRESS PERIOD    5
     3 TOTAL ITERATIONS


     2 CALLS TO PCG ROUTINE FOR TIME STEP   1 IN STRESS PERIOD    5
     3 TOTAL ITERATIONS


     1 CALLS TO PCG ROUTINE FOR TIME STEP   1 IN STRESS PERIOD    5
     1 TOTAL ITERATIONS


     1 CALLS TO PCG ROUTINE FOR TIME STEP   1 IN STRESS PERIOD    5
     1 TOTAL ITERATIONS


     1 CALLS TO PCG ROUTINE FOR TIME STEP   1 IN STRESS PERIOD    5
     1 TOTAL ITERATIONS

 OUTPUT CONTROL FOR STRESS PERIOD      5   TIME STEP     1
    SAVE BUDGET
 UBDSV1 SAVING "         STORAGE" ON UNIT7012 AT TIME STEP    1, STRESS PERIOD   5
 UBDSV2 SAVING "   CONSTANT HEAD" ON UNIT7012 AT TIME STEP    1, STRESS PERIOD   5
 UBDSV1 SAVING "FLOW RIGHT FACE " ON UNIT7012 AT TIME STEP    1, STRESS PERIOD   5
 UBDSV1 SAVING "FLOW FRONT FACE " ON UNIT7012 AT TIME STEP    1, STRESS PERIOD   5
 UBDSV1 SAVING "FLOW LOWER FACE " ON UNIT7012 AT TIME STEP    1, STRESS PERIOD   5
 UBDSV4 SAVING " GHOST-NODE HEAD" ON UNIT7012 AT TIME STEP    1, STRESS PERIOD   5
1
  FLUX ACROSS PARENT-CHILD INTERFACE AT TIME STEP  1 IN STRESS PERIOD    5
  ------------------------------------------------------------------------
 G-N FLUX        PARENT        CHILD         DIFFERENCE      % DIFFERENCE
  RATE IN:      1.0554E+03    1.0554E+03     6.0913E-02        0.0058
 RATE OUT:      1.1066E+03    1.1066E+03    -3.1738E-03       -0.0003
 
 SOLVING FOR HEAD 
     2 CALLS TO PCG ROUTINE FOR TIME STEP   2 IN STRESS PERIOD    5
     5 TOTAL ITERATIONS
     2 CALLS TO PCG ROUTINE FOR TIME STEP   2 IN STRESS PERIOD    5
     5 TOTAL ITERATIONS
     2 CALLS TO PCG ROUTINE FOR TIME STEP   2 IN STRESS PERIOD    5
     4 TOTAL ITERATIONS
     2 CALLS TO PCG ROUTINE FOR TIME STEP   2 IN STRESS PERIOD    5
     4 TOTAL ITERATIONS
     2 CALLS TO PCG ROUTINE FOR TIME STEP   2 IN STRESS PERIOD    5
     4 TOTAL ITERATIONS
     2 CALLS TO PCG ROUTINE FOR TIME STEP   2 IN STRESS PERIOD    5
     3 TOTAL ITERATIONS
     2 CALLS TO PCG ROUTINE FOR TIME STEP   2 IN STRESS PERIOD    5
     3 TOTAL ITERATIONS
     2 CALLS TO PCG ROUTINE FOR TIME STEP   2 IN STRESS PERIOD    5
     3 TOTAL ITERATIONS
     1 CALLS TO PCG ROUTINE FOR TIME STEP   2 IN STRESS PERIOD    5
     1 TOTAL ITERATIONS
     1 CALLS TO PCG ROUTINE FOR TIME STEP   2 IN STRESS PERIOD    5
     1 TOTAL ITERATIONS
     1 CALLS TO PCG ROUTINE FOR TIME STEP   2 IN STRESS PERIOD    5
     1 TOTAL ITERATIONS
     1 CALLS TO PCG ROUTINE FOR TIME STEP   2 IN STRESS PERIOD    5
     1 TOTAL ITERATIONS

 OUTPUT CONTROL FOR STRESS PERIOD      5   TIME STEP     2
    SAVE BUDGET
 UBDSV1 SAVING "         STORAGE" ON UNIT7012 AT TIME STEP    2, STRESS PERIOD   5
 UBDSV2 SAVING "   CONSTANT HEAD" ON UNIT7012 AT TIME STEP    2, STRESS PERIOD   5
 UBDSV1 SAVING "FLOW RIGHT FACE " ON UNIT7012 AT TIME STEP    2, STRESS PERIOD   5
 UBDSV1 SAVING "FLOW FRONT FACE " ON UNIT7012 AT TIME STEP    2, STRESS PERIOD   5
 UBDSV1 SAVING "FLOW LOWER FACE " ON UNIT7012 AT TIME STEP    2, STRESS PERIOD   5
 UBDSV4 SAVING " GHOST-NODE HEAD" ON UNIT7012 AT TIME STEP    2, STRESS PERIOD   5
1
  VOLUMETRIC BUDGET FOR ENTIRE MODEL AT END OF TIME STEP    2 IN STRESS PERIOD      5
  ------------------------------------------------------------------------------

     CUMULATIVE VOLUMES      L**3       RATES FOR THIS TIME STEP      L**3/T
     ------------------                 ------------------------

           IN:                                      IN:
           ---                                      ---
             STORAGE =       18958.1680               STORAGE =          68.4262
       CONSTANT HEAD =           0.0000         CONSTANT HEAD =           0.0000
     GHOST-NODE HEAD =      189834.3750       GHOST-NODE HEAD =        1008.6129

            TOTAL IN =      208792.5469              TOTAL IN =        1077.0391

          OUT:                                     OUT:
          ----                                     ----
             STORAGE =        6403.8887               STORAGE =           0.0000
       CONSTANT HEAD =           0.0000         CONSTANT HEAD =           0.0000
     GHOST-NODE HEAD =      202388.0156       GHOST-NODE HEAD =        1077.0156

           TOTAL OUT =      208791.9062             TOTAL OUT =        1077.0156

            IN - OUT =           0.6406              IN - OUT =       2.3438E-02

 PERCENT DISCREPANCY =           0.00     PERCENT DISCREPANCY =           0.00






          TIME SUMMARY AT END OF TIME STEP     2 IN STRESS PERIOD      5
                    SECONDS     MINUTES      HOURS       DAYS        YEARS
                    -----------------------------------------------------------
   TIME STEP LENGTH 1.31414E+06  21902.      365.04      15.210     4.16427E-02
 STRESS PERIOD TIME 2.62829E+06  43805.      730.08      30.420     8.32854E-02
         TOTAL TIME 1.31414E+07 2.19024E+05  3650.4      152.10     0.41643    
1
1
  FLUX ACROSS PARENT-CHILD INTERFACE AT TIME STEP  2 IN STRESS PERIOD    5
  ------------------------------------------------------------------------
 G-N FLUX        PARENT        CHILD         DIFFERENCE      % DIFFERENCE
  RATE IN:      1.0087E+03    1.0086E+03     4.4312E-02        0.0044
 RATE OUT:      1.0770E+03    1.0770E+03    -2.8564E-02       -0.0027
1
                            STRESS PERIOD NO.      6, LENGTH =   30.42000    
                            -----------------------------------------------

                              NUMBER OF TIME STEPS =     2

                               MULTIPLIER FOR DELT =     1.000

                            INITIAL TIME STEP SIZE =   15.21000    
 
 SOLVING FOR HEAD 


     2 CALLS TO PCG ROUTINE FOR TIME STEP   1 IN STRESS PERIOD    6
     5 TOTAL ITERATIONS


     2 CALLS TO PCG ROUTINE FOR TIME STEP   1 IN STRESS PERIOD    6
     5 TOTAL ITERATIONS


     2 CALLS TO PCG ROUTINE FOR TIME STEP   1 IN STRESS PERIOD    6
     4 TOTAL ITERATIONS


     2 CALLS TO PCG ROUTINE FOR TIME STEP   1 IN STRESS PERIOD    6
     4 TOTAL ITERATIONS


     2 CALLS TO PCG ROUTINE FOR TIME STEP   1 IN STRESS PERIOD    6
     4 TOTAL ITERATIONS


     2 CALLS TO PCG ROUTINE FOR TIME STEP   1 IN STRESS PERIOD    6
     4 TOTAL ITERATIONS


     2 CALLS TO PCG ROUTINE FOR TIME STEP   1 IN STRESS PERIOD    6
     3 TOTAL ITERATIONS


     2 CALLS TO PCG ROUTINE FOR TIME STEP   1 IN STRESS PERIOD    6
     3 TOTAL ITERATIONS


     1 CALLS TO PCG ROUTINE FOR TIME STEP   1 IN STRESS PERIOD    6
     1 TOTAL ITERATIONS


     1 CALLS TO PCG ROUTINE FOR TIME STEP   1 IN STRESS PERIOD    6
     1 TOTAL ITERATIONS

 OUTPUT CONTROL FOR STRESS PERIOD      6   TIME STEP     1
    SAVE BUDGET
 UBDSV1 SAVING "         STORAGE" ON UNIT7012 AT TIME STEP    1, STRESS PERIOD   6
 UBDSV2 SAVING "   CONSTANT HEAD" ON UNIT7012 AT TIME STEP    1, STRESS PERIOD   6
 UBDSV1 SAVING "FLOW RIGHT FACE " ON UNIT7012 AT TIME STEP    1, STRESS PERIOD   6
 UBDSV1 SAVING "FLOW FRONT FACE " ON UNIT7012 AT TIME STEP    1, STRESS PERIOD   6
 UBDSV1 SAVING "FLOW LOWER FACE " ON UNIT7012 AT TIME STEP    1, STRESS PERIOD   6
 UBDSV4 SAVING " GHOST-NODE HEAD" ON UNIT7012 AT TIME STEP    1, STRESS PERIOD   6
1
  FLUX ACROSS PARENT-CHILD INTERFACE AT TIME STEP  1 IN STRESS PERIOD    6
  ------------------------------------------------------------------------
 G-N FLUX        PARENT        CHILD         DIFFERENCE      % DIFFERENCE
  RATE IN:      9.4365E+02    9.4355E+02     1.0315E-01        0.0109
 RATE OUT:      1.0275E+03    1.0278E+03    -3.0884E-01       -0.0301
 
 SOLVING FOR HEAD 
     2 CALLS TO PCG ROUTINE FOR TIME STEP   2 IN STRESS PERIOD    6
     5 TOTAL ITERATIONS
     2 CALLS TO PCG ROUTINE FOR TIME STEP   2 IN STRESS PERIOD    6
     5 TOTAL ITERATIONS
     2 CALLS TO PCG ROUTINE FOR TIME STEP   2 IN STRESS PERIOD    6
     4 TOTAL ITERATIONS
     2 CALLS TO PCG ROUTINE FOR TIME STEP   2 IN STRESS PERIOD    6
     4 TOTAL ITERATIONS
     2 CALLS TO PCG ROUTINE FOR TIME STEP   2 IN STRESS PERIOD    6
     4 TOTAL ITERATIONS
     2 CALLS TO PCG ROUTINE FOR TIME STEP   2 IN STRESS PERIOD    6
     3 TOTAL ITERATIONS
     2 CALLS TO PCG ROUTINE FOR TIME STEP   2 IN STRESS PERIOD    6
     3 TOTAL ITERATIONS
     2 CALLS TO PCG ROUTINE FOR TIME STEP   2 IN STRESS PERIOD    6
     3 TOTAL ITERATIONS
     1 CALLS TO PCG ROUTINE FOR TIME STEP   2 IN STRESS PERIOD    6
     1 TOTAL ITERATIONS
     1 CALLS TO PCG ROUTINE FOR TIME STEP   2 IN STRESS PERIOD    6
     1 TOTAL ITERATIONS
     1 CALLS TO PCG ROUTINE FOR TIME STEP   2 IN STRESS PERIOD    6
     1 TOTAL ITERATIONS

 OUTPUT CONTROL FOR STRESS PERIOD      6   TIME STEP     2
    PRINT BUDGET
    SAVE HEAD FOR ALL LAYERS
    SAVE BUDGET
 UBDSV1 SAVING "         STORAGE" ON UNIT7012 AT TIME STEP    2, STRESS PERIOD   6
 UBDSV2 SAVING "   CONSTANT HEAD" ON UNIT7012 AT TIME STEP    2, STRESS PERIOD   6
 UBDSV1 SAVING "FLOW RIGHT FACE " ON UNIT7012 AT TIME STEP    2, STRESS PERIOD   6
 UBDSV1 SAVING "FLOW FRONT FACE " ON UNIT7012 AT TIME STEP    2, STRESS PERIOD   6
 UBDSV1 SAVING "FLOW LOWER FACE " ON UNIT7012 AT TIME STEP    2, STRESS PERIOD   6
 UBDSV4 SAVING " GHOST-NODE HEAD" ON UNIT7012 AT TIME STEP    2, STRESS PERIOD   6

 HEAD WILL BE SAVED ON UNIT 2212 AT END OF TIME STEP     2, STRESS PERIOD      6
1
  VOLUMETRIC BUDGET FOR ENTIRE MODEL AT END OF TIME STEP    2 IN STRESS PERIOD      6
  ------------------------------------------------------------------------------

     CUMULATIVE VOLUMES      L**3       RATES FOR THIS TIME STEP      L**3/T
     ------------------                 ------------------------

           IN:                                      IN:
           ---                                      ---
             STORAGE =       21645.8789               STORAGE =          92.4743
       CONSTANT HEAD =           0.0000         CONSTANT HEAD =           0.0000
     GHOST-NODE HEAD =      218081.7812       GHOST-NODE HEAD =         913.6135

            TOTAL IN =      239727.6562              TOTAL IN =        1006.0879

          OUT:                                     OUT:
          ----                                     ----
             STORAGE =        6403.8887               STORAGE =           0.0000
       CONSTANT HEAD =           0.0000         CONSTANT HEAD =           0.0000
     GHOST-NODE HEAD =      233323.1406       GHOST-NODE HEAD =        1006.0767

           TOTAL OUT =      239727.0312             TOTAL OUT =        1006.0767

            IN - OUT =           0.6250              IN - OUT =       1.1230E-02

 PERCENT DISCREPANCY =           0.00     PERCENT DISCREPANCY =           0.00






          TIME SUMMARY AT END OF TIME STEP     2 IN STRESS PERIOD      6
                    SECONDS     MINUTES      HOURS       DAYS        YEARS
                    -----------------------------------------------------------
   TIME STEP LENGTH 1.31414E+06  21902.      365.04      15.210     4.16427E-02
 STRESS PERIOD TIME 2.62829E+06  43805.      730.08      30.420     8.32854E-02
         TOTAL TIME 1.57697E+07 2.62829E+05  4380.5      182.52     0.49971    
1
1
  FLUX ACROSS PARENT-CHILD INTERFACE AT TIME STEP  2 IN STRESS PERIOD    6
  ------------------------------------------------------------------------
 G-N FLUX        PARENT        CHILD         DIFFERENCE      % DIFFERENCE
  RATE IN:      9.1378E+02    9.1361E+02     1.6638E-01        0.0182
 RATE OUT:      1.0060E+03    1.0061E+03    -3.1982E-02       -0.0032
1
                            STRESS PERIOD NO.      7, LENGTH =   30.42000    
                            -----------------------------------------------

                              NUMBER OF TIME STEPS =     2

                               MULTIPLIER FOR DELT =     1.000

                            INITIAL TIME STEP SIZE =   15.21000    
 
 SOLVING FOR HEAD 


     3 CALLS TO PCG ROUTINE FOR TIME STEP   1 IN STRESS PERIOD    7
     7 TOTAL ITERATIONS


     2 CALLS TO PCG ROUTINE FOR TIME STEP   1 IN STRESS PERIOD    7
     5 TOTAL ITERATIONS


     2 CALLS TO PCG ROUTINE FOR TIME STEP   1 IN STRESS PERIOD    7
     5 TOTAL ITERATIONS


     2 CALLS TO PCG ROUTINE FOR TIME STEP   1 IN STRESS PERIOD    7
     4 TOTAL ITERATIONS


     2 CALLS TO PCG ROUTINE FOR TIME STEP   1 IN STRESS PERIOD    7
     4 TOTAL ITERATIONS


     2 CALLS TO PCG ROUTINE FOR TIME STEP   1 IN STRESS PERIOD    7
     4 TOTAL ITERATIONS


     2 CALLS TO PCG ROUTINE FOR TIME STEP   1 IN STRESS PERIOD    7
     3 TOTAL ITERATIONS


     2 CALLS TO PCG ROUTINE FOR TIME STEP   1 IN STRESS PERIOD    7
     3 TOTAL ITERATIONS


     1 CALLS TO PCG ROUTINE FOR TIME STEP   1 IN STRESS PERIOD    7
     1 TOTAL ITERATIONS


     1 CALLS TO PCG ROUTINE FOR TIME STEP   1 IN STRESS PERIOD    7
     1 TOTAL ITERATIONS


     1 CALLS TO PCG ROUTINE FOR TIME STEP   1 IN STRESS PERIOD    7
     1 TOTAL ITERATIONS

 OUTPUT CONTROL FOR STRESS PERIOD      7   TIME STEP     1
    SAVE BUDGET
 UBDSV1 SAVING "         STORAGE" ON UNIT7012 AT TIME STEP    1, STRESS PERIOD   7
 UBDSV2 SAVING "   CONSTANT HEAD" ON UNIT7012 AT TIME STEP    1, STRESS PERIOD   7
 UBDSV1 SAVING "FLOW RIGHT FACE " ON UNIT7012 AT TIME STEP    1, STRESS PERIOD   7
 UBDSV1 SAVING "FLOW FRONT FACE " ON UNIT7012 AT TIME STEP    1, STRESS PERIOD   7
 UBDSV1 SAVING "FLOW LOWER FACE " ON UNIT7012 AT TIME STEP    1, STRESS PERIOD   7
 UBDSV4 SAVING " GHOST-NODE HEAD" ON UNIT7012 AT TIME STEP    1, STRESS PERIOD   7
1
  FLUX ACROSS PARENT-CHILD INTERFACE AT TIME STEP  1 IN STRESS PERIOD    7
  ------------------------------------------------------------------------
 G-N FLUX        PARENT        CHILD         DIFFERENCE      % DIFFERENCE
  RATE IN:      8.4306E+02    8.4271E+02     3.5156E-01        0.0417
 RATE OUT:      1.0213E+03    1.0214E+03    -7.4707E-02       -0.0073
 
 SOLVING FOR HEAD 
     3 CALLS TO PCG ROUTINE FOR TIME STEP   2 IN STRESS PERIOD    7
     7 TOTAL ITERATIONS
     2 CALLS TO PCG ROUTINE FOR TIME STEP   2 IN STRESS PERIOD    7
     5 TOTAL ITERATIONS
     2 CALLS TO PCG ROUTINE FOR TIME STEP   2 IN STRESS PERIOD    7
     5 TOTAL ITERATIONS
     2 CALLS TO PCG ROUTINE FOR TIME STEP   2 IN STRESS PERIOD    7
     4 TOTAL ITERATIONS
     2 CALLS TO PCG ROUTINE FOR TIME STEP   2 IN STRESS PERIOD    7
     4 TOTAL ITERATIONS
     2 CALLS TO PCG ROUTINE FOR TIME STEP   2 IN STRESS PERIOD    7
     4 TOTAL ITERATIONS
     2 CALLS TO PCG ROUTINE FOR TIME STEP   2 IN STRESS PERIOD    7
     3 TOTAL ITERATIONS
     2 CALLS TO PCG ROUTINE FOR TIME STEP   2 IN STRESS PERIOD    7
     3 TOTAL ITERATIONS
     1 CALLS TO PCG ROUTINE FOR TIME STEP   2 IN STRESS PERIOD    7
     1 TOTAL ITERATIONS
     1 CALLS TO PCG ROUTINE FOR TIME STEP   2 IN STRESS PERIOD    7
     1 TOTAL ITERATIONS
     1 CALLS TO PCG ROUTINE FOR TIME STEP   2 IN STRESS PERIOD    7
     1 TOTAL ITERATIONS

 OUTPUT CONTROL FOR STRESS PERIOD      7   TIME STEP     2
    SAVE BUDGET
 UBDSV1 SAVING "         STORAGE" ON UNIT7012 AT TIME STEP    2, STRESS PERIOD   7
 UBDSV2 SAVING "   CONSTANT HEAD" ON UNIT7012 AT TIME STEP    2, STRESS PERIOD   7
 UBDSV1 SAVING "FLOW RIGHT FACE " ON UNIT7012 AT TIME STEP    2, STRESS PERIOD   7
 UBDSV1 SAVING "FLOW FRONT FACE " ON UNIT7012 AT TIME STEP    2, STRESS PERIOD   7
 UBDSV1 SAVING "FLOW LOWER FACE " ON UNIT7012 AT TIME STEP    2, STRESS PERIOD   7
 UBDSV4 SAVING " GHOST-NODE HEAD" ON UNIT7012 AT TIME STEP    2, STRESS PERIOD   7
1
  VOLUMETRIC BUDGET FOR ENTIRE MODEL AT END OF TIME STEP    2 IN STRESS PERIOD      7
  ------------------------------------------------------------------------------

     CUMULATIVE VOLUMES      L**3       RATES FOR THIS TIME STEP      L**3/T
     ------------------                 ------------------------

           IN:                                      IN:
           ---                                      ---
             STORAGE =       26721.8906               STORAGE =         155.0630
       CONSTANT HEAD =           0.0000         CONSTANT HEAD =           0.0000
     GHOST-NODE HEAD =      244505.1250       GHOST-NODE HEAD =         894.5275

            TOTAL IN =      271227.0000              TOTAL IN =        1049.5905

          OUT:                                     OUT:
          ----                                     ----
             STORAGE =        6403.8887               STORAGE =           0.0000
       CONSTANT HEAD =           0.0000         CONSTANT HEAD =           0.0000
     GHOST-NODE HEAD =      264821.9688       GHOST-NODE HEAD =        1049.5740

           TOTAL OUT =      271225.8438             TOTAL OUT =        1049.5740

            IN - OUT =           1.1562              IN - OUT =       1.6479E-02

 PERCENT DISCREPANCY =           0.00     PERCENT DISCREPANCY =           0.00






          TIME SUMMARY AT END OF TIME STEP     2 IN STRESS PERIOD      7
                    SECONDS     MINUTES      HOURS       DAYS        YEARS
                    -----------------------------------------------------------
   TIME STEP LENGTH 1.31414E+06  21902.      365.04      15.210     4.16427E-02
 STRESS PERIOD TIME 2.62829E+06  43805.      730.08      30.420     8.32854E-02
         TOTAL TIME 1.83980E+07 3.06634E+05  5110.6      212.94     0.58300    
1
1
  FLUX ACROSS PARENT-CHILD INTERFACE AT TIME STEP  2 IN STRESS PERIOD    7
  ------------------------------------------------------------------------
 G-N FLUX        PARENT        CHILD         DIFFERENCE      % DIFFERENCE
  RATE IN:      8.9487E+02    8.9453E+02     3.4344E-01        0.0384
 RATE OUT:      1.0495E+03    1.0496E+03    -2.6367E-02       -0.0025
1
                            STRESS PERIOD NO.      8, LENGTH =   30.42000    
                            -----------------------------------------------

                              NUMBER OF TIME STEPS =     2

                               MULTIPLIER FOR DELT =     1.000

                            INITIAL TIME STEP SIZE =   15.21000    
 
 SOLVING FOR HEAD 


     3 CALLS TO PCG ROUTINE FOR TIME STEP   1 IN STRESS PERIOD    8
     7 TOTAL ITERATIONS


     2 CALLS TO PCG ROUTINE FOR TIME STEP   1 IN STRESS PERIOD    8
     5 TOTAL ITERATIONS


     2 CALLS TO PCG ROUTINE FOR TIME STEP   1 IN STRESS PERIOD    8
     5 TOTAL ITERATIONS


     2 CALLS TO PCG ROUTINE FOR TIME STEP   1 IN STRESS PERIOD    8
     4 TOTAL ITERATIONS


     2 CALLS TO PCG ROUTINE FOR TIME STEP   1 IN STRESS PERIOD    8
     4 TOTAL ITERATIONS


     2 CALLS TO PCG ROUTINE FOR TIME STEP   1 IN STRESS PERIOD    8
     4 TOTAL ITERATIONS


     2 CALLS TO PCG ROUTINE FOR TIME STEP   1 IN STRESS PERIOD    8
     3 TOTAL ITERATIONS


     2 CALLS TO PCG ROUTINE FOR TIME STEP   1 IN STRESS PERIOD    8
     3 TOTAL ITERATIONS


     1 CALLS TO PCG ROUTINE FOR TIME STEP   1 IN STRESS PERIOD    8
     1 TOTAL ITERATIONS


     1 CALLS TO PCG ROUTINE FOR TIME STEP   1 IN STRESS PERIOD    8
     1 TOTAL ITERATIONS


     1 CALLS TO PCG ROUTINE FOR TIME STEP   1 IN STRESS PERIOD    8
     1 TOTAL ITERATIONS

 OUTPUT CONTROL FOR STRESS PERIOD      8   TIME STEP     1
    SAVE BUDGET
 UBDSV1 SAVING "         STORAGE" ON UNIT7012 AT TIME STEP    1, STRESS PERIOD   8
 UBDSV2 SAVING "   CONSTANT HEAD" ON UNIT7012 AT TIME STEP    1, STRESS PERIOD   8
 UBDSV1 SAVING "FLOW RIGHT FACE " ON UNIT7012 AT TIME STEP    1, STRESS PERIOD   8
 UBDSV1 SAVING "FLOW FRONT FACE " ON UNIT7012 AT TIME STEP    1, STRESS PERIOD   8
 UBDSV1 SAVING "FLOW LOWER FACE " ON UNIT7012 AT TIME STEP    1, STRESS PERIOD   8
 UBDSV4 SAVING " GHOST-NODE HEAD" ON UNIT7012 AT TIME STEP    1, STRESS PERIOD   8
1
  FLUX ACROSS PARENT-CHILD INTERFACE AT TIME STEP  1 IN STRESS PERIOD    8
  ------------------------------------------------------------------------
 G-N FLUX        PARENT        CHILD         DIFFERENCE      % DIFFERENCE
  RATE IN:      9.1793E+02    9.1764E+02     2.8784E-01        0.0314
 RATE OUT:      1.0747E+03    1.0748E+03    -8.0811E-02       -0.0075
 
 SOLVING FOR HEAD 
     3 CALLS TO PCG ROUTINE FOR TIME STEP   2 IN STRESS PERIOD    8
     8 TOTAL ITERATIONS
     2 CALLS TO PCG ROUTINE FOR TIME STEP   2 IN STRESS PERIOD    8
     5 TOTAL ITERATIONS
     2 CALLS TO PCG ROUTINE FOR TIME STEP   2 IN STRESS PERIOD    8
     5 TOTAL ITERATIONS
     2 CALLS TO PCG ROUTINE FOR TIME STEP   2 IN STRESS PERIOD    8
     4 TOTAL ITERATIONS
     2 CALLS TO PCG ROUTINE FOR TIME STEP   2 IN STRESS PERIOD    8
     4 TOTAL ITERATIONS
     2 CALLS TO PCG ROUTINE FOR TIME STEP   2 IN STRESS PERIOD    8
     4 TOTAL ITERATIONS
     2 CALLS TO PCG ROUTINE FOR TIME STEP   2 IN STRESS PERIOD    8
     3 TOTAL ITERATIONS
     2 CALLS TO PCG ROUTINE FOR TIME STEP   2 IN STRESS PERIOD    8
     3 TOTAL ITERATIONS
     1 CALLS TO PCG ROUTINE FOR TIME STEP   2 IN STRESS PERIOD    8
     1 TOTAL ITERATIONS
     1 CALLS TO PCG ROUTINE FOR TIME STEP   2 IN STRESS PERIOD    8
     1 TOTAL ITERATIONS
     1 CALLS TO PCG ROUTINE FOR TIME STEP   2 IN STRESS PERIOD    8
     1 TOTAL ITERATIONS

 OUTPUT CONTROL FOR STRESS PERIOD      8   TIME STEP     2
    SAVE BUDGET
 UBDSV1 SAVING "         STORAGE" ON UNIT7012 AT TIME STEP    2, STRESS PERIOD   8
 UBDSV2 SAVING "   CONSTANT HEAD" ON UNIT7012 AT TIME STEP    2, STRESS PERIOD   8
 UBDSV1 SAVING "FLOW RIGHT FACE " ON UNIT7012 AT TIME STEP    2, STRESS PERIOD   8
 UBDSV1 SAVING "FLOW FRONT FACE " ON UNIT7012 AT TIME STEP    2, STRESS PERIOD   8
 UBDSV1 SAVING "FLOW LOWER FACE " ON UNIT7012 AT TIME STEP    2, STRESS PERIOD   8
 UBDSV4 SAVING " GHOST-NODE HEAD" ON UNIT7012 AT TIME STEP    2, STRESS PERIOD   8
1
  VOLUMETRIC BUDGET FOR ENTIRE MODEL AT END OF TIME STEP    2 IN STRESS PERIOD      8
  ------------------------------------------------------------------------------

     CUMULATIVE VOLUMES      L**3       RATES FOR THIS TIME STEP      L**3/T
     ------------------                 ------------------------

           IN:                                      IN:
           ---                                      ---
             STORAGE =       31122.9238               STORAGE =         132.2193
       CONSTANT HEAD =           0.0000         CONSTANT HEAD =           0.0000
     GHOST-NODE HEAD =      273158.5312       GHOST-NODE HEAD =         966.2140

            TOTAL IN =      304281.4688              TOTAL IN =        1098.4333

          OUT:                                     OUT:
          ----                                     ----
             STORAGE =        6403.8887               STORAGE =           0.0000
       CONSTANT HEAD =           0.0000         CONSTANT HEAD =           0.0000
     GHOST-NODE HEAD =      297876.3750       GHOST-NODE HEAD =        1098.4490

           TOTAL OUT =      304280.2500             TOTAL OUT =        1098.4490

            IN - OUT =           1.2188              IN - OUT =      -1.5625E-02

 PERCENT DISCREPANCY =           0.00     PERCENT DISCREPANCY =          -0.00






          TIME SUMMARY AT END OF TIME STEP     2 IN STRESS PERIOD      8
                    SECONDS     MINUTES      HOURS       DAYS        YEARS
                    -----------------------------------------------------------
   TIME STEP LENGTH 1.31414E+06  21902.      365.04      15.210     4.16427E-02
 STRESS PERIOD TIME 2.62829E+06  43805.      730.08      30.420     8.32854E-02
         TOTAL TIME 2.10263E+07 3.50438E+05  5840.6      243.36     0.66628    
1
1
  FLUX ACROSS PARENT-CHILD INTERFACE AT TIME STEP  2 IN STRESS PERIOD    8
  ------------------------------------------------------------------------
 G-N FLUX        PARENT        CHILD         DIFFERENCE      % DIFFERENCE
  RATE IN:      9.6648E+02    9.6621E+02     2.6599E-01        0.0275
 RATE OUT:      1.0984E+03    1.0984E+03    -7.5928E-02       -0.0069
1
                            STRESS PERIOD NO.      9, LENGTH =   30.42000    
                            -----------------------------------------------

                              NUMBER OF TIME STEPS =     2

                               MULTIPLIER FOR DELT =     1.000

                            INITIAL TIME STEP SIZE =   15.21000    
 
 SOLVING FOR HEAD 


     3 CALLS TO PCG ROUTINE FOR TIME STEP   1 IN STRESS PERIOD    9
     8 TOTAL ITERATIONS


     2 CALLS TO PCG ROUTINE FOR TIME STEP   1 IN STRESS PERIOD    9
     5 TOTAL ITERATIONS


     2 CALLS TO PCG ROUTINE FOR TIME STEP   1 IN STRESS PERIOD    9
     4 TOTAL ITERATIONS


     2 CALLS TO PCG ROUTINE FOR TIME STEP   1 IN STRESS PERIOD    9
     4 TOTAL ITERATIONS


     2 CALLS TO PCG ROUTINE FOR TIME STEP   1 IN STRESS PERIOD    9
     4 TOTAL ITERATIONS


     2 CALLS TO PCG ROUTINE FOR TIME STEP   1 IN STRESS PERIOD    9
     4 TOTAL ITERATIONS


     2 CALLS TO PCG ROUTINE FOR TIME STEP   1 IN STRESS PERIOD    9
     3 TOTAL ITERATIONS


     2 CALLS TO PCG ROUTINE FOR TIME STEP   1 IN STRESS PERIOD    9
     3 TOTAL ITERATIONS


     2 CALLS TO PCG ROUTINE FOR TIME STEP   1 IN STRESS PERIOD    9
     3 TOTAL ITERATIONS


     1 CALLS TO PCG ROUTINE FOR TIME STEP   1 IN STRESS PERIOD    9
     1 TOTAL ITERATIONS


     1 CALLS TO PCG ROUTINE FOR TIME STEP   1 IN STRESS PERIOD    9
     1 TOTAL ITERATIONS

 OUTPUT CONTROL FOR STRESS PERIOD      9   TIME STEP     1
    SAVE BUDGET
 UBDSV1 SAVING "         STORAGE" ON UNIT7012 AT TIME STEP    1, STRESS PERIOD   9
 UBDSV2 SAVING "   CONSTANT HEAD" ON UNIT7012 AT TIME STEP    1, STRESS PERIOD   9
 UBDSV1 SAVING "FLOW RIGHT FACE " ON UNIT7012 AT TIME STEP    1, STRESS PERIOD   9
 UBDSV1 SAVING "FLOW FRONT FACE " ON UNIT7012 AT TIME STEP    1, STRESS PERIOD   9
 UBDSV1 SAVING "FLOW LOWER FACE " ON UNIT7012 AT TIME STEP    1, STRESS PERIOD   9
 UBDSV4 SAVING " GHOST-NODE HEAD" ON UNIT7012 AT TIME STEP    1, STRESS PERIOD   9
1
  FLUX ACROSS PARENT-CHILD INTERFACE AT TIME STEP  1 IN STRESS PERIOD    9
  ------------------------------------------------------------------------
 G-N FLUX        PARENT        CHILD         DIFFERENCE      % DIFFERENCE
  RATE IN:      9.4597E+02    9.4593E+02     3.8330E-02        0.0041
 RATE OUT:      1.0836E+03    1.0838E+03    -2.1814E-01       -0.0201
 
 SOLVING FOR HEAD 
     2 CALLS TO PCG ROUTINE FOR TIME STEP   2 IN STRESS PERIOD    9
     5 TOTAL ITERATIONS
     2 CALLS TO PCG ROUTINE FOR TIME STEP   2 IN STRESS PERIOD    9
     5 TOTAL ITERATIONS
     2 CALLS TO PCG ROUTINE FOR TIME STEP   2 IN STRESS PERIOD    9
     4 TOTAL ITERATIONS
     2 CALLS TO PCG ROUTINE FOR TIME STEP   2 IN STRESS PERIOD    9
     4 TOTAL ITERATIONS
     2 CALLS TO PCG ROUTINE FOR TIME STEP   2 IN STRESS PERIOD    9
     4 TOTAL ITERATIONS
     2 CALLS TO PCG ROUTINE FOR TIME STEP   2 IN STRESS PERIOD    9
     4 TOTAL ITERATIONS
     2 CALLS TO PCG ROUTINE FOR TIME STEP   2 IN STRESS PERIOD    9
     3 TOTAL ITERATIONS
     2 CALLS TO PCG ROUTINE FOR TIME STEP   2 IN STRESS PERIOD    9
     3 TOTAL ITERATIONS
     1 CALLS TO PCG ROUTINE FOR TIME STEP   2 IN STRESS PERIOD    9
     1 TOTAL ITERATIONS
     1 CALLS TO PCG ROUTINE FOR TIME STEP   2 IN STRESS PERIOD    9
     1 TOTAL ITERATIONS
     1 CALLS TO PCG ROUTINE FOR TIME STEP   2 IN STRESS PERIOD    9
     1 TOTAL ITERATIONS

 OUTPUT CONTROL FOR STRESS PERIOD      9   TIME STEP     2
    PRINT BUDGET
    SAVE HEAD FOR ALL LAYERS
    SAVE BUDGET
 UBDSV1 SAVING "         STORAGE" ON UNIT7012 AT TIME STEP    2, STRESS PERIOD   9
 UBDSV2 SAVING "   CONSTANT HEAD" ON UNIT7012 AT TIME STEP    2, STRESS PERIOD   9
 UBDSV1 SAVING "FLOW RIGHT FACE " ON UNIT7012 AT TIME STEP    2, STRESS PERIOD   9
 UBDSV1 SAVING "FLOW FRONT FACE " ON UNIT7012 AT TIME STEP    2, STRESS PERIOD   9
 UBDSV1 SAVING "FLOW LOWER FACE " ON UNIT7012 AT TIME STEP    2, STRESS PERIOD   9
 UBDSV4 SAVING " GHOST-NODE HEAD" ON UNIT7012 AT TIME STEP    2, STRESS PERIOD   9

 HEAD WILL BE SAVED ON UNIT 2212 AT END OF TIME STEP     2, STRESS PERIOD      9
1
  VOLUMETRIC BUDGET FOR ENTIRE MODEL AT END OF TIME STEP    2 IN STRESS PERIOD      9
  ------------------------------------------------------------------------------

     CUMULATIVE VOLUMES      L**3       RATES FOR THIS TIME STEP      L**3/T
     ------------------                 ------------------------

           IN:                                      IN:
           ---                                      ---
             STORAGE =       34898.0938               STORAGE =         110.3148
       CONSTANT HEAD =           0.0000         CONSTANT HEAD =           0.0000
     GHOST-NODE HEAD =      302683.8125       GHOST-NODE HEAD =         995.2446

            TOTAL IN =      337581.9062              TOTAL IN =        1105.5593

          OUT:                                     OUT:
          ----                                     ----
             STORAGE =        6403.8887               STORAGE =           0.0000
       CONSTANT HEAD =           0.0000         CONSTANT HEAD =           0.0000
     GHOST-NODE HEAD =      331176.0938       GHOST-NODE HEAD =        1105.5355

           TOTAL OUT =      337579.9688             TOTAL OUT =        1105.5355

            IN - OUT =           1.9375              IN - OUT =       2.3804E-02

 PERCENT DISCREPANCY =           0.00     PERCENT DISCREPANCY =           0.00






          TIME SUMMARY AT END OF TIME STEP     2 IN STRESS PERIOD      9
                    SECONDS     MINUTES      HOURS       DAYS        YEARS
                    -----------------------------------------------------------
[...]

 PERCENT DISCREPANCY =           0.00     PERCENT DISCREPANCY =           0.00






          TIME SUMMARY AT END OF TIME STEP     2 IN STRESS PERIOD     21
                    SECONDS     MINUTES      HOURS       DAYS        YEARS
                    -----------------------------------------------------------
   TIME STEP LENGTH 1.31414E+06  21902.      365.04      15.210     4.16427E-02
 STRESS PERIOD TIME 2.62829E+06  43805.      730.08      30.420     8.32854E-02
         TOTAL TIME 5.51941E+07 9.19901E+05  15332.      638.82      1.7490    
1
1
  FLUX ACROSS PARENT-CHILD INTERFACE AT TIME STEP  2 IN STRESS PERIOD   21
  ------------------------------------------------------------------------
 G-N FLUX        PARENT        CHILD         DIFFERENCE      % DIFFERENCE
  RATE IN:      1.0039E+03    1.0039E+03     2.5024E-03        0.0002
 RATE OUT:      1.1045E+03    1.1047E+03    -2.1057E-01       -0.0191
1
                            STRESS PERIOD NO.     22, LENGTH =   30.42000    
                            -----------------------------------------------

                              NUMBER OF TIME STEPS =     2

                               MULTIPLIER FOR DELT =     1.000

                            INITIAL TIME STEP SIZE =   15.21000    
 
 SOLVING FOR HEAD 


     2 CALLS TO PCG ROUTINE FOR TIME STEP   1 IN STRESS PERIOD   22
     5 TOTAL ITERATIONS


     2 CALLS TO PCG ROUTINE FOR TIME STEP   1 IN STRESS PERIOD   22
     5 TOTAL ITERATIONS


     2 CALLS TO PCG ROUTINE FOR TIME STEP   1 IN STRESS PERIOD   22
     5 TOTAL ITERATIONS


     2 CALLS TO PCG ROUTINE FOR TIME STEP   1 IN STRESS PERIOD   22
     4 TOTAL ITERATIONS


     2 CALLS TO PCG ROUTINE FOR TIME STEP   1 IN STRESS PERIOD   22
     4 TOTAL ITERATIONS


     2 CALLS TO PCG ROUTINE FOR TIME STEP   1 IN STRESS PERIOD   22
     4 TOTAL ITERATIONS


     2 CALLS TO PCG ROUTINE FOR TIME STEP   1 IN STRESS PERIOD   22
     3 TOTAL ITERATIONS


     2 CALLS TO PCG ROUTINE FOR TIME STEP   1 IN STRESS PERIOD   22
     3 TOTAL ITERATIONS


     1 CALLS TO PCG ROUTINE FOR TIME STEP   1 IN STRESS PERIOD   22
     1 TOTAL ITERATIONS


     1 CALLS TO PCG ROUTINE FOR TIME STEP   1 IN STRESS PERIOD   22
     1 TOTAL ITERATIONS


     1 CALLS TO PCG ROUTINE FOR TIME STEP   1 IN STRESS PERIOD   22
     1 TOTAL ITERATIONS

 OUTPUT CONTROL FOR STRESS PERIOD     22   TIME STEP     1
    SAVE BUDGET
 UBDSV1 SAVING "         STORAGE" ON UNIT7012 AT TIME STEP    1, STRESS PERIOD  22
 UBDSV2 SAVING "   CONSTANT HEAD" ON UNIT7012 AT TIME STEP    1, STRESS PERIOD  22
 UBDSV1 SAVING "FLOW RIGHT FACE " ON UNIT7012 AT TIME STEP    1, STRESS PERIOD  22
 UBDSV1 SAVING "FLOW FRONT FACE " ON UNIT7012 AT TIME STEP    1, STRESS PERIOD  22
 UBDSV1 SAVING "FLOW LOWER FACE " ON UNIT7012 AT TIME STEP    1, STRESS PERIOD  22
 UBDSV4 SAVING " GHOST-NODE HEAD" ON UNIT7012 AT TIME STEP    1, STRESS PERIOD  22
1
  FLUX ACROSS PARENT-CHILD INTERFACE AT TIME STEP  1 IN STRESS PERIOD   22
  ------------------------------------------------------------------------
 G-N FLUX        PARENT        CHILD         DIFFERENCE      % DIFFERENCE
  RATE IN:      1.0446E+03    1.0446E+03    -2.1851E-02       -0.0021
 RATE OUT:      1.1550E+03    1.1552E+03    -2.4805E-01       -0.0215
 
 SOLVING FOR HEAD 
     2 CALLS TO PCG ROUTINE FOR TIME STEP   2 IN STRESS PERIOD   22
     5 TOTAL ITERATIONS
     2 CALLS TO PCG ROUTINE FOR TIME STEP   2 IN STRESS PERIOD   22
     5 TOTAL ITERATIONS
     2 CALLS TO PCG ROUTINE FOR TIME STEP   2 IN STRESS PERIOD   22
     5 TOTAL ITERATIONS
     2 CALLS TO PCG ROUTINE FOR TIME STEP   2 IN STRESS PERIOD   22
     4 TOTAL ITERATIONS
     2 CALLS TO PCG ROUTINE FOR TIME STEP   2 IN STRESS PERIOD   22
     4 TOTAL ITERATIONS
     2 CALLS TO PCG ROUTINE FOR TIME STEP   2 IN STRESS PERIOD   22
     3 TOTAL ITERATIONS
     2 CALLS TO PCG ROUTINE FOR TIME STEP   2 IN STRESS PERIOD   22
     3 TOTAL ITERATIONS
     2 CALLS TO PCG ROUTINE FOR TIME STEP   2 IN STRESS PERIOD   22
     3 TOTAL ITERATIONS
     1 CALLS TO PCG ROUTINE FOR TIME STEP   2 IN STRESS PERIOD   22
     1 TOTAL ITERATIONS
     1 CALLS TO PCG ROUTINE FOR TIME STEP   2 IN STRESS PERIOD   22
     1 TOTAL ITERATIONS
     1 CALLS TO PCG ROUTINE FOR TIME STEP   2 IN STRESS PERIOD   22
     1 TOTAL ITERATIONS

 OUTPUT CONTROL FOR STRESS PERIOD     22   TIME STEP     2
    SAVE BUDGET
 UBDSV1 SAVING "         STORAGE" ON UNIT7012 AT TIME STEP    2, STRESS PERIOD  22
 UBDSV2 SAVING "   CONSTANT HEAD" ON UNIT7012 AT TIME STEP    2, STRESS PERIOD  22
 UBDSV1 SAVING "FLOW RIGHT FACE " ON UNIT7012 AT TIME STEP    2, STRESS PERIOD  22
 UBDSV1 SAVING "FLOW FRONT FACE " ON UNIT7012 AT TIME STEP    2, STRESS PERIOD  22
 UBDSV1 SAVING "FLOW LOWER FACE " ON UNIT7012 AT TIME STEP    2, STRESS PERIOD  22
 UBDSV4 SAVING " GHOST-NODE HEAD" ON UNIT7012 AT TIME STEP    2, STRESS PERIOD  22
1
  VOLUMETRIC BUDGET FOR ENTIRE MODEL AT END OF TIME STEP    2 IN STRESS PERIOD     22
  ------------------------------------------------------------------------------

     CUMULATIVE VOLUMES      L**3       RATES FOR THIS TIME STEP      L**3/T
     ------------------                 ------------------------

           IN:                                      IN:
           ---                                      ---
             STORAGE =       67070.6172               STORAGE =          96.4070
       CONSTANT HEAD =           0.0000         CONSTANT HEAD =           0.0000
     GHOST-NODE HEAD =      711838.0625       GHOST-NODE HEAD =        1097.1097

            TOTAL IN =      778908.6875              TOTAL IN =        1193.5168

          OUT:                                     OUT:
          ----                                     ----
             STORAGE =       24494.6738               STORAGE =           0.0000
       CONSTANT HEAD =           0.0000         CONSTANT HEAD =           0.0000
     GHOST-NODE HEAD =      754412.3125       GHOST-NODE HEAD =        1193.5149

           TOTAL OUT =      778907.0000             TOTAL OUT =        1193.5149

            IN - OUT =           1.6875              IN - OUT =       1.9531E-03

 PERCENT DISCREPANCY =           0.00     PERCENT DISCREPANCY =           0.00






          TIME SUMMARY AT END OF TIME STEP     2 IN STRESS PERIOD     22
                    SECONDS     MINUTES      HOURS       DAYS        YEARS
                    -----------------------------------------------------------
   TIME STEP LENGTH 1.31414E+06  21902.      365.04      15.210     4.16427E-02
 STRESS PERIOD TIME 2.62829E+06  43805.      730.08      30.420     8.32854E-02
         TOTAL TIME 5.78223E+07 9.63706E+05  16062.      669.24      1.8323    
1
1
  FLUX ACROSS PARENT-CHILD INTERFACE AT TIME STEP  2 IN STRESS PERIOD   22
  ------------------------------------------------------------------------
 G-N FLUX        PARENT        CHILD         DIFFERENCE      % DIFFERENCE
  RATE IN:      1.0971E+03    1.0971E+03     1.2573E-02        0.0011
 RATE OUT:      1.1933E+03    1.1935E+03    -1.9360E-01       -0.0162
1
                            STRESS PERIOD NO.     23, LENGTH =   30.42000    
                            -----------------------------------------------

                              NUMBER OF TIME STEPS =     2

                               MULTIPLIER FOR DELT =     1.000

                            INITIAL TIME STEP SIZE =   15.21000    
 
 SOLVING FOR HEAD 


     2 CALLS TO PCG ROUTINE FOR TIME STEP   1 IN STRESS PERIOD   23
     6 TOTAL ITERATIONS


     2 CALLS TO PCG ROUTINE FOR TIME STEP   1 IN STRESS PERIOD   23
     5 TOTAL ITERATIONS


     2 CALLS TO PCG ROUTINE FOR TIME STEP   1 IN STRESS PERIOD   23
     5 TOTAL ITERATIONS


     2 CALLS TO PCG ROUTINE FOR TIME STEP   1 IN STRESS PERIOD   23
     5 TOTAL ITERATIONS


     2 CALLS TO PCG ROUTINE FOR TIME STEP   1 IN STRESS PERIOD   23
     4 TOTAL ITERATIONS


     2 CALLS TO PCG ROUTINE FOR TIME STEP   1 IN STRESS PERIOD   23
     4 TOTAL ITERATIONS


     2 CALLS TO PCG ROUTINE FOR TIME STEP   1 IN STRESS PERIOD   23
     3 TOTAL ITERATIONS


     2 CALLS TO PCG ROUTINE FOR TIME STEP   1 IN STRESS PERIOD   23
     3 TOTAL ITERATIONS


     2 CALLS TO PCG ROUTINE FOR TIME STEP   1 IN STRESS PERIOD   23
     3 TOTAL ITERATIONS


     2 CALLS TO PCG ROUTINE FOR TIME STEP   1 IN STRESS PERIOD   23
     3 TOTAL ITERATIONS


     1 CALLS TO PCG ROUTINE FOR TIME STEP   1 IN STRESS PERIOD   23
     1 TOTAL ITERATIONS

 OUTPUT CONTROL FOR STRESS PERIOD     23   TIME STEP     1
    SAVE BUDGET
 UBDSV1 SAVING "         STORAGE" ON UNIT7012 AT TIME STEP    1, STRESS PERIOD  23
 UBDSV2 SAVING "   CONSTANT HEAD" ON UNIT7012 AT TIME STEP    1, STRESS PERIOD  23
 UBDSV1 SAVING "FLOW RIGHT FACE " ON UNIT7012 AT TIME STEP    1, STRESS PERIOD  23
 UBDSV1 SAVING "FLOW FRONT FACE " ON UNIT7012 AT TIME STEP    1, STRESS PERIOD  23
 UBDSV1 SAVING "FLOW LOWER FACE " ON UNIT7012 AT TIME STEP    1, STRESS PERIOD  23
 UBDSV4 SAVING " GHOST-NODE HEAD" ON UNIT7012 AT TIME STEP    1, STRESS PERIOD  23
1
  FLUX ACROSS PARENT-CHILD INTERFACE AT TIME STEP  1 IN STRESS PERIOD   23
  ------------------------------------------------------------------------
 G-N FLUX        PARENT        CHILD         DIFFERENCE      % DIFFERENCE
  RATE IN:      1.4670E+03    1.4671E+03    -5.1025E-02       -0.0035
 RATE OUT:      1.3948E+03    1.3950E+03    -1.3464E-01       -0.0097
 
 SOLVING FOR HEAD 
     2 CALLS TO PCG ROUTINE FOR TIME STEP   2 IN STRESS PERIOD   23
     5 TOTAL ITERATIONS
     2 CALLS TO PCG ROUTINE FOR TIME STEP   2 IN STRESS PERIOD   23
     5 TOTAL ITERATIONS
     2 CALLS TO PCG ROUTINE FOR TIME STEP   2 IN STRESS PERIOD   23
     4 TOTAL ITERATIONS
     2 CALLS TO PCG ROUTINE FOR TIME STEP   2 IN STRESS PERIOD   23
     4 TOTAL ITERATIONS
     2 CALLS TO PCG ROUTINE FOR TIME STEP   2 IN STRESS PERIOD   23
     4 TOTAL ITERATIONS
     2 CALLS TO PCG ROUTINE FOR TIME STEP   2 IN STRESS PERIOD   23
     4 TOTAL ITERATIONS
     2 CALLS TO PCG ROUTINE FOR TIME STEP   2 IN STRESS PERIOD   23
     3 TOTAL ITERATIONS
     1 CALLS TO PCG ROUTINE FOR TIME STEP   2 IN STRESS PERIOD   23
     1 TOTAL ITERATIONS
     1 CALLS TO PCG ROUTINE FOR TIME STEP   2 IN STRESS PERIOD   23
     1 TOTAL ITERATIONS
     1 CALLS TO PCG ROUTINE FOR TIME STEP   2 IN STRESS PERIOD   23
     1 TOTAL ITERATIONS
     1 CALLS TO PCG ROUTINE FOR TIME STEP   2 IN STRESS PERIOD   23
     1 TOTAL ITERATIONS

 OUTPUT CONTROL FOR STRESS PERIOD     23   TIME STEP     2
    SAVE BUDGET
 UBDSV1 SAVING "         STORAGE" ON UNIT7012 AT TIME STEP    2, STRESS PERIOD  23
 UBDSV2 SAVING "   CONSTANT HEAD" ON UNIT7012 AT TIME STEP    2, STRESS PERIOD  23
 UBDSV1 SAVING "FLOW RIGHT FACE " ON UNIT7012 AT TIME STEP    2, STRESS PERIOD  23
 UBDSV1 SAVING "FLOW FRONT FACE " ON UNIT7012 AT TIME STEP    2, STRESS PERIOD  23
 UBDSV1 SAVING "FLOW LOWER FACE " ON UNIT7012 AT TIME STEP    2, STRESS PERIOD  23
 UBDSV4 SAVING " GHOST-NODE HEAD" ON UNIT7012 AT TIME STEP    2, STRESS PERIOD  23
1
  VOLUMETRIC BUDGET FOR ENTIRE MODEL AT END OF TIME STEP    2 IN STRESS PERIOD     23
  ------------------------------------------------------------------------------

     CUMULATIVE VOLUMES      L**3       RATES FOR THIS TIME STEP      L**3/T
     ------------------                 ------------------------

           IN:                                      IN:
           ---                                      ---
             STORAGE =       67123.1797               STORAGE =       3.4485E-02
       CONSTANT HEAD =           0.0000         CONSTANT HEAD =           0.0000
     GHOST-NODE HEAD =      757903.5625       GHOST-NODE HEAD =        1561.5780

            TOTAL IN =      825026.7500              TOTAL IN =        1561.6125

          OUT:                                     OUT:
          ----                                     ----
             STORAGE =       26811.9023               STORAGE =          76.7964
       CONSTANT HEAD =           0.0000         CONSTANT HEAD =           0.0000
     GHOST-NODE HEAD =      798214.4375       GHOST-NODE HEAD =        1484.8485

           TOTAL OUT =      825026.3125             TOTAL OUT =        1561.6449

            IN - OUT =           0.4375              IN - OUT =      -3.2349E-02

 PERCENT DISCREPANCY =           0.00     PERCENT DISCREPANCY =          -0.00






          TIME SUMMARY AT END OF TIME STEP     2 IN STRESS PERIOD     23
                    SECONDS     MINUTES      HOURS       DAYS        YEARS
                    -----------------------------------------------------------
   TIME STEP LENGTH 1.31414E+06  21902.      365.04      15.210     4.16427E-02
 STRESS PERIOD TIME 2.62829E+06  43805.      730.08      30.420     8.32854E-02
         TOTAL TIME 6.04506E+07 1.00751E+06  16792.      699.66      1.9156    
1
1
  FLUX ACROSS PARENT-CHILD INTERFACE AT TIME STEP  2 IN STRESS PERIOD   23
  ------------------------------------------------------------------------
 G-N FLUX        PARENT        CHILD         DIFFERENCE      % DIFFERENCE
  RATE IN:      1.5615E+03    1.5616E+03    -1.1877E-01       -0.0076
 RATE OUT:      1.4848E+03    1.4848E+03    -3.9185E-02       -0.0026
1
                            STRESS PERIOD NO.     24, LENGTH =   30.42000    
                            -----------------------------------------------

                              NUMBER OF TIME STEPS =     2

                               MULTIPLIER FOR DELT =     1.000

                            INITIAL TIME STEP SIZE =   15.21000    
 
 SOLVING FOR HEAD 


     3 CALLS TO PCG ROUTINE FOR TIME STEP   1 IN STRESS PERIOD   24
     8 TOTAL ITERATIONS


     3 CALLS TO PCG ROUTINE FOR TIME STEP   1 IN STRESS PERIOD   24
     7 TOTAL ITERATIONS


     2 CALLS TO PCG ROUTINE FOR TIME STEP   1 IN STRESS PERIOD   24
     5 TOTAL ITERATIONS


     2 CALLS TO PCG ROUTINE FOR TIME STEP   1 IN STRESS PERIOD   24
     4 TOTAL ITERATIONS


     2 CALLS TO PCG ROUTINE FOR TIME STEP   1 IN STRESS PERIOD   24
     4 TOTAL ITERATIONS


     2 CALLS TO PCG ROUTINE FOR TIME STEP   1 IN STRESS PERIOD   24
     4 TOTAL ITERATIONS


     2 CALLS TO PCG ROUTINE FOR TIME STEP   1 IN STRESS PERIOD   24
     3 TOTAL ITERATIONS


     2 CALLS TO PCG ROUTINE FOR TIME STEP   1 IN STRESS PERIOD   24
     3 TOTAL ITERATIONS


     2 CALLS TO PCG ROUTINE FOR TIME STEP   1 IN STRESS PERIOD   24
     3 TOTAL ITERATIONS


     2 CALLS TO PCG ROUTINE FOR TIME STEP   1 IN STRESS PERIOD   24
     3 TOTAL ITERATIONS


     1 CALLS TO PCG ROUTINE FOR TIME STEP   1 IN STRESS PERIOD   24
     1 TOTAL ITERATIONS

 OUTPUT CONTROL FOR STRESS PERIOD     24   TIME STEP     1
    SAVE BUDGET
 UBDSV1 SAVING "         STORAGE" ON UNIT7012 AT TIME STEP    1, STRESS PERIOD  24
 UBDSV2 SAVING "   CONSTANT HEAD" ON UNIT7012 AT TIME STEP    1, STRESS PERIOD  24
 UBDSV1 SAVING "FLOW RIGHT FACE " ON UNIT7012 AT TIME STEP    1, STRESS PERIOD  24
 UBDSV1 SAVING "FLOW FRONT FACE " ON UNIT7012 AT TIME STEP    1, STRESS PERIOD  24
 UBDSV1 SAVING "FLOW LOWER FACE " ON UNIT7012 AT TIME STEP    1, STRESS PERIOD  24
 UBDSV4 SAVING " GHOST-NODE HEAD" ON UNIT7012 AT TIME STEP    1, STRESS PERIOD  24
1
  FLUX ACROSS PARENT-CHILD INTERFACE AT TIME STEP  1 IN STRESS PERIOD   24
  ------------------------------------------------------------------------
 G-N FLUX        PARENT        CHILD         DIFFERENCE      % DIFFERENCE
  RATE IN:      1.6544E+03    1.6546E+03    -2.2925E-01       -0.0139
 RATE OUT:      1.3806E+03    1.3804E+03     1.8469E-01        0.0134
 
 SOLVING FOR HEAD 
     3 CALLS TO PCG ROUTINE FOR TIME STEP   2 IN STRESS PERIOD   24
     7 TOTAL ITERATIONS
     3 CALLS TO PCG ROUTINE FOR TIME STEP   2 IN STRESS PERIOD   24
     7 TOTAL ITERATIONS
     2 CALLS TO PCG ROUTINE FOR TIME STEP   2 IN STRESS PERIOD   24
     5 TOTAL ITERATIONS
     2 CALLS TO PCG ROUTINE FOR TIME STEP   2 IN STRESS PERIOD   24
     4 TOTAL ITERATIONS
     2 CALLS TO PCG ROUTINE FOR TIME STEP   2 IN STRESS PERIOD   24
     4 TOTAL ITERATIONS
     2 CALLS TO PCG ROUTINE FOR TIME STEP   2 IN STRESS PERIOD   24
     4 TOTAL ITERATIONS
     2 CALLS TO PCG ROUTINE FOR TIME STEP   2 IN STRESS PERIOD   24
     3 TOTAL ITERATIONS
     2 CALLS TO PCG ROUTINE FOR TIME STEP   2 IN STRESS PERIOD   24
     3 TOTAL ITERATIONS
     2 CALLS TO PCG ROUTINE FOR TIME STEP   2 IN STRESS PERIOD   24
     3 TOTAL ITERATIONS
     1 CALLS TO PCG ROUTINE FOR TIME STEP   2 IN STRESS PERIOD   24
     1 TOTAL ITERATIONS
     1 CALLS TO PCG ROUTINE FOR TIME STEP   2 IN STRESS PERIOD   24
     1 TOTAL ITERATIONS

 OUTPUT CONTROL FOR STRESS PERIOD     24   TIME STEP     2
    PRINT BUDGET
    SAVE HEAD FOR ALL LAYERS
    SAVE BUDGET
 UBDSV1 SAVING "         STORAGE" ON UNIT7012 AT TIME STEP    2, STRESS PERIOD  24
 UBDSV2 SAVING "   CONSTANT HEAD" ON UNIT7012 AT TIME STEP    2, STRESS PERIOD  24
 UBDSV1 SAVING "FLOW RIGHT FACE " ON UNIT7012 AT TIME STEP    2, STRESS PERIOD  24
 UBDSV1 SAVING "FLOW FRONT FACE " ON UNIT7012 AT TIME STEP    2, STRESS PERIOD  24
 UBDSV1 SAVING "FLOW LOWER FACE " ON UNIT7012 AT TIME STEP    2, STRESS PERIOD  24
 UBDSV4 SAVING " GHOST-NODE HEAD" ON UNIT7012 AT TIME STEP    2, STRESS PERIOD  24

 HEAD WILL BE SAVED ON UNIT 2212 AT END OF TIME STEP     2, STRESS PERIOD     24
1
  VOLUMETRIC BUDGET FOR ENTIRE MODEL AT END OF TIME STEP    2 IN STRESS PERIOD     24
  ------------------------------------------------------------------------------

     CUMULATIVE VOLUMES      L**3       RATES FOR THIS TIME STEP      L**3/T
     ------------------                 ------------------------

           IN:                                      IN:
           ---                                      ---
             STORAGE =       67123.1797               STORAGE =           0.0000
       CONSTANT HEAD =           0.0000         CONSTANT HEAD =           0.0000
     GHOST-NODE HEAD =      807180.3125       GHOST-NODE HEAD =        1585.1212

            TOTAL IN =      874303.5000              TOTAL IN =        1585.1212

          OUT:                                     OUT:
          ----                                     ----
             STORAGE =       34843.8242               STORAGE =         253.8406
       CONSTANT HEAD =           0.0000         CONSTANT HEAD =           0.0000
     GHOST-NODE HEAD =      839459.9375       GHOST-NODE HEAD =        1331.2917

           TOTAL OUT =      874303.7500             TOTAL OUT =        1585.1323

            IN - OUT =          -0.2500              IN - OUT =      -1.1108E-02

 PERCENT DISCREPANCY =          -0.00     PERCENT DISCREPANCY =          -0.00






          TIME SUMMARY AT END OF TIME STEP     2 IN STRESS PERIOD     24
                    SECONDS     MINUTES      HOURS       DAYS        YEARS
                    -----------------------------------------------------------
   TIME STEP LENGTH 1.31414E+06  21902.      365.04      15.210     4.16427E-02
 STRESS PERIOD TIME 2.62829E+06  43805.      730.08      30.420     8.32854E-02
         TOTAL TIME 6.30789E+07 1.05132E+06  17522.      730.08      1.9989    
1
1
  FLUX ACROSS PARENT-CHILD INTERFACE AT TIME STEP  2 IN STRESS PERIOD   24
  ------------------------------------------------------------------------
 G-N FLUX        PARENT        CHILD         DIFFERENCE      % DIFFERENCE
  RATE IN:      1.5849E+03    1.5851E+03    -2.1045E-01       -0.0133
 RATE OUT:      1.3316E+03    1.3313E+03     2.5867E-01        0.0194
