
                       OWHM 1.0
    U.S. GEOLOGICAL SURVEY MODULAR FINITE-DIFFERENCE 
         ONE-WATER HYDROLOGIC-FLOW MODEL [OWHM]
              Version 1.0.0   11/05/2014

 INCLUDES:
          MODFLOW-2005 Version 1.11.0  08/08/2013
          FMP          Version 3.0.0   08/01/2014
          SWR          Version 1.03.0  09/24/2013
          SWI          Version 2.0.0   07/22/2013
          LGR          Version 2.0.0   09/19/2013
          NWT          Version 1.0.9   07/01/2014


 LIST FILE: ../../test-out-owhm-lgr/fmp-lgr-lpf/OWHM_EX2_child3.lst
                         UNIT  713

 OPENING OWHM_EX2_child3.lpf
 FILE TYPE:LPF   UNIT  913   STATUS:OLD    
 FORMAT:FORMATTED              ACCESS:SEQUENTIAL          

 OPENING OWHM_EX2_child3.ba6
 FILE TYPE:BAS6   UNIT 1013   STATUS:OLD    
 FORMAT:FORMATTED              ACCESS:SEQUENTIAL          

 OPENING OWHM_EX2_child3.dis
 FILE TYPE:DIS   UNIT 1113   STATUS:OLD    
 FORMAT:FORMATTED              ACCESS:SEQUENTIAL          

 OPENING OWHM_EX2_child3.fmp
 FILE TYPE:FMP   UNIT 1213   STATUS:OLD    
 FORMAT:FORMATTED              ACCESS:SEQUENTIAL          

 OPENING OWHM_EX2_child3.sfr
 FILE TYPE:SFR   UNIT 1413   STATUS:OLD    
 FORMAT:FORMATTED              ACCESS:SEQUENTIAL          

 OPENING OWHM_EX2_child3.oc
 FILE TYPE:OC   UNIT 1913   STATUS:OLD    
 FORMAT:FORMATTED              ACCESS:SEQUENTIAL          
# Solvers                                                                                                                                                                                                                                                                                                                                                                                                                                                                                                                                                                                                                                                                                                                   

 OPENING OWHM_EX2.pcg
 FILE TYPE:PCG   UNIT 1813   STATUS:OLD    
 FORMAT:FORMATTED              ACCESS:SEQUENTIAL          
#                                                                                                                                                                                                                                                                                                                                                                                                                                                                                                                                                                                                                                                                                                                           

 OPENING ../../test-out-owhm-lgr/fmp-lgr-lpf/OWHM_EX2_child3.hed
 FILE TYPE:DATA   UNIT 2213   STATUS:UNKNOWN
 FORMAT:FORMATTED              ACCESS:SEQUENTIAL          
#                                                                                                                                                                                                                                                                                                                                                                                                                                                                                                                                                                                                                                                                                                                           

 OPENING ../../test-out-owhm-lgr/fmp-lgr-lpf/CBC_child3.OUT
 FILE TYPE:DATA(BINARY)   UNIT 7013   STATUS:UNKNOWN
 FORMAT:UNFORMATTED            ACCESS:STREAM              

 OPENING ../../test-out-owhm-lgr/fmp-lgr-lpf/OWHM_EX2_child_bfh3.hed
 FILE TYPE:DATA   UNIT 5913   STATUS:UNKNOWN
 FORMAT:FORMATTED              ACCESS:SEQUENTIAL          

 OPENING ../../test-out-owhm-lgr/fmp-lgr-lpf/OWHM_EX2_child_bfh3.flw
 FILE TYPE:DATA   UNIT 6913   STATUS:UNKNOWN
 FORMAT:FORMATTED              ACCESS:SEQUENTIAL          

 OPENING ../../test-out-owhm-lgr/fmp-lgr-lpf/OWHM_EX2_child3_SFR_OUTPUT.txt
 FILE TYPE:DATA   UNIT   77   STATUS:UNKNOWN
 FORMAT:FORMATTED              ACCESS:SEQUENTIAL          

 BAS -- BASIC PACKAGE, VERSION 7, 5/2/2005 INPUT READ FROM UNIT 1013
 
 MODFLOW was compiled using mixed precision
 Precision of REAL variables:           6
 Precision of DOUBLE PRECISION variables:          15

 DISCRETIZATION INPUT DATA READ FROM UNIT 1113
 # generic model 1 transient discretization file

*** DIS COORDINATE SYSTEM NOT SEPECIFIED ***
DEFAULT VALUES APPLIED ARE 0° ROTATION
WITH THE ORIGIN (0,0) LOCATED AT THE MODEL'S LOWER LEFT CORNER


    4 LAYERS        15 ROWS         6 COLUMNS
     24 STRESS PERIOD(S) IN SIMULATION
 MODEL TIME UNIT IS DAYS
 MODEL LENGTH UNIT IS METERS
  Confining bed flag for each layer:
   1   1   1   0

                     DELR =   166.667    

                     DELC =   166.667    

 OPENING FILE ON UNIT   99:
 ./DATA_FMP/GSE_child3.in                                                                                                                                                                                                                                                                                                                                                                                                                                                                                                                                                                                                                                                                                                    



           TOP ELEVATION OF LAYER 1
 READING ON UNIT   99 WITH FORMAT: (FREE)              

   MODEL LAYER BOTTOM EL. =   205.000     FOR LAYER   1

 BOT. EL. OF QUASI-3D BED =   200.000     FOR LAYER   1

   MODEL LAYER BOTTOM EL. =   140.000     FOR LAYER   2

 BOT. EL. OF QUASI-3D BED =   125.000     FOR LAYER   2

   MODEL LAYER BOTTOM EL. =   65.0000     FOR LAYER   3

 BOT. EL. OF QUASI-3D BED =   60.0000     FOR LAYER   3

   MODEL LAYER BOTTOM EL. =   0.00000     FOR LAYER   4


 STRESS PERIOD     LENGTH       TIME STEPS     MULTIPLIER FOR DELT    SS FLAG
 ----------------------------------------------------------------------------
        1         30.42000          2                    1.000         TR
        2         30.42000          2                    1.000         TR
        3         30.42000          2                    1.000         TR
        4         30.42000          2                    1.000         TR
        5         30.42000          2                    1.000         TR
        6         30.42000          2                    1.000         TR
        7         30.42000          2                    1.000         TR
        8         30.42000          2                    1.000         TR
        9         30.42000          2                    1.000         TR
       10         30.42000          2                    1.000         TR
       11         30.42000          2                    1.000         TR
       12         30.42000          2                    1.000         TR
       13         30.42000          2                    1.000         TR
       14         30.42000          2                    1.000         TR
       15         30.42000          2                    1.000         TR
       16         30.42000          2                    1.000         TR
       17         30.42000          2                    1.000         TR
       18         30.42000          2                    1.000         TR
       19         30.42000          2                    1.000         TR
       20         30.42000          2                    1.000         TR
       21         30.42000          2                    1.000         TR
       22         30.42000          2                    1.000         TR
       23         30.42000          2                    1.000         TR
       24         30.42000          2                    1.000         TR

 TRANSIENT SIMULATION



 
 # generic model 1                                                               
 THE FREE FORMAT OPTION HAS BEEN SELECTED

 THE MAX STORAGE FOR PROPERTIES DEFINED BY PARAMETERS IS: 
 MAX STORAGE OF PARAMETERS (MXPAR)  IS       2000
 MAX STORAGE OF INSTANCES  (MXINST) IS      50000
 MAX STORAGE OF CLUSTERS   (MXCLST) IS    2000000

 CALCULATE FLOW BETWEEN ADJACENT CONSTANT-HEAD CELLS

 OPENING FILE ON UNIT   99:
 OWHM_EX2_child3.ib                                                                                                                                                                                                                                                                                                                                                                                                                                                                                                                                                                                                                                                                                                          



                     BOUNDARY ARRAY FOR LAYER   1
 READING ON UNIT   99 WITH FORMAT: (FREE)              

 OPENING FILE ON UNIT   99:
 OWHM_EX2_child3.ib                                                                                                                                                                                                                                                                                                                                                                                                                                                                                                                                                                                                                                                                                                          



                     BOUNDARY ARRAY FOR LAYER   2
 READING ON UNIT   99 WITH FORMAT: (FREE)              

 OPENING FILE ON UNIT   99:
 OWHM_EX2_child3.ib                                                                                                                                                                                                                                                                                                                                                                                                                                                                                                                                                                                                                                                                                                          



                     BOUNDARY ARRAY FOR LAYER   3
 READING ON UNIT   99 WITH FORMAT: (FREE)              

 OPENING FILE ON UNIT   99:
 OWHM_EX2_child3.ib                                                                                                                                                                                                                                                                                                                                                                                                                                                                                                                                                                                                                                                                                                          



                     BOUNDARY ARRAY FOR LAYER   4
 READING ON UNIT   99 WITH FORMAT: (FREE)              

CHECKING FOR VALID MODEL DIMENIONS FOR DELR, DELC, AND THICKNESS


 AQUIFER HEAD WILL BE SET TO  -333.00     AT ALL NO-FLOW NODES (IBOUND=0).

             INITIAL HEAD =   0.00000     FOR LAYER   1

             INITIAL HEAD =   0.00000     FOR LAYER   2

             INITIAL HEAD =   0.00000     FOR LAYER   3

             INITIAL HEAD =   0.00000     FOR LAYER   4

 OUTPUT CONTROL IS SPECIFIED ONLY AT TIME STEPS FOR WHICH OUTPUT IS DESIRED
 HEADS WILL BE SAVED WITH FORMAT: (100F8.2)           
 SAVED HEADS WILL BE LABELED
 COMPACT CELL-BY-CELL BUDGET FILES WILL BE WRITTEN
 HEAD PRINT FORMAT CODE IS  -3    DRAWDOWN PRINT FORMAT CODE IS   0
 HEADS WILL BE SAVED ON UNIT 2213    DRAWDOWNS WILL BE SAVED ON UNIT    0  WATER BUDGETs WILL BE SAVED ON UNIT 

 LGR2 -- LOCAL GRID REFINEMENT, VERSION 2.0, 06/25/2013
        INPUT READ FOR MODEL  4 DEFINED BY NAME FILE OWHM_EX2_child3.nam

 LOCAL GRID REFINEMENT IS ACTIVE FOR CHILD ONLY
               STARTING HEADS FROM PARENT WILL BE USED: ISHFLG =   1
               VALUE IN IBOUND INDICATING BOUNDARY INTERFACE = 4913
               BOUNDARY HEADS WILL BE SAVED ON UNIT  5913
               BOUNDARY FLUXES WILL BE SAVED ON UNIT  6913
               MAX NUMBER OF LGR ITERATIONS = 30
               LGR ITERATION RESULTS WRITTEN TO SCREEN: IOUTLGR =  -1

               WEIGHTING FACTORS FOR RELAXATION
               RELAXH(HEAD) RELAXF(FLUX)
               -------------------------
               0.500E+00      0.500E+00

               CLOSURE CRITERIA FOR LGR ITERATIONS
               HCLOSELGR       FCLOSELGR
               -------------------------
               5.000E-04      1.000E+00

               STARTING LAYER, ROW, COLUMN=   1,   6,  10
               ENDING LAYER, ROW, COLUMN=     4,  10,  11
               NCPP: NUMBER OF CHILD CELLS PER WIDTH OF PARENT CELL= 3
               NCPPL: NUMBER OF CHILD LAYERS IN LAYER  1 OF PARENT = 1
               NCPPL: NUMBER OF CHILD LAYERS IN LAYER  2 OF PARENT = 1
               NCPPL: NUMBER OF CHILD LAYERS IN LAYER  3 OF PARENT = 1
               NCPPL: NUMBER OF CHILD LAYERS IN LAYER  4 OF PARENT = 1

 LPF -- LAYER-PROPERTY FLOW PACKAGE, VERSION 7, 5/2/2005
         INPUT READ FROM UNIT  913
 CELL-BY-CELL FLOWS WILL BE SAVED ON UNIT 7013
 HEAD AT CELLS THAT CONVERT TO DRY=   2223.0    
 No named parameters

   LAYER FLAGS:
 LAYER       LAYTYP        LAYAVG         CHANI        LAYVKA        LAYWET
 ---------------------------------------------------------------------------
    1             1             0     1.000E+00             1             0
    2             0             0     1.000E+00             1             0
    3             0             0     1.000E+00             1             0
    4             0             0     1.000E+00             1             0

   INTERPRETATION OF LAYER FLAGS:
                        INTERBLOCK     HORIZONTAL    DATA IN
         LAYER TYPE   TRANSMISSIVITY   ANISOTROPY   ARRAY VKA   WETTABILITY
 LAYER      (LAYTYP)      (LAYAVG)       (CHANI)      (LAYVKA)      (LAYWET)
 ---------------------------------------------------------------------------
    1   CONVERTIBLE      HARMONIC     1.000E+00    ANISOTROPY  NON-WETTABLE
    2      CONFINED      HARMONIC     1.000E+00    ANISOTROPY  NON-WETTABLE
    3      CONFINED      HARMONIC     1.000E+00    ANISOTROPY  NON-WETTABLE
    4      CONFINED      HARMONIC     1.000E+00    ANISOTROPY  NON-WETTABLE

 WETTING CAPABILITY IS NOT ACTIVE IN ANY LAYER

    HYD. COND. ALONG ROWS =   10.0000     FOR LAYER   1

  HORIZ. TO VERTICAL ANI. =   1.00000     FOR LAYER   1

         SPECIFIC STORAGE =  1.000000E-05 FOR LAYER   1

           SPECIFIC YIELD =  2.000000E-02 FOR LAYER   1

 QUASI3D VERT. HYD. COND. =  2.000000E-03 FOR LAYER   1

    HYD. COND. ALONG ROWS =   1.50000     FOR LAYER   2

  HORIZ. TO VERTICAL ANI. =   1.00000     FOR LAYER   2

         SPECIFIC STORAGE =  1.000000E-05 FOR LAYER   2

 QUASI3D VERT. HYD. COND. =  1.000000E-03 FOR LAYER   2

    HYD. COND. ALONG ROWS =   1.00000     FOR LAYER   3

  HORIZ. TO VERTICAL ANI. =   1.00000     FOR LAYER   3

         SPECIFIC STORAGE =  1.000000E-05 FOR LAYER   3

 QUASI3D VERT. HYD. COND. =  5.000000E-04 FOR LAYER   3

    HYD. COND. ALONG ROWS =  0.150000     FOR LAYER   4

  HORIZ. TO VERTICAL ANI. =   1.00000     FOR LAYER   4

         SPECIFIC STORAGE =  1.000000E-05 FOR LAYER   4

 SFR7 -- STREAMFLOW ROUTING PACKAGE, VERSION 1.0.5, 2012-04-05
         INPUT READ FROM UNIT 1413
 # Project 1 New Stream Aquifer Package
 No named parameters
 Segment information will not be 
 read by reach
 No named parameters

 NO TABFILE SPECIFIED FOR PACKAGE SFR 

 No specifed inflow files
 AUXILIARY STREAM FLOW ROUTING VARIABLE: LGRGRID         
 AUXILIARY STREAM FLOW ROUTING VARIABLE: LGRSEG          


 NUMBER OF STREAM REACHES IS    6

 NUMBER OF STREAM SEGMENTS IS    1

 NUMBER OF STREAM PARAMETERS IS    0

 NUMBER OF STREAM SEGMENTS DEFINED USING PARAMETERS IS              0

 MAXIMUM ERROR FOR STREAM LEAKAGE RATES IS  1.00E-04

 CONSTANT FOR MANNINGS EQUATION IS  8.6400E+04



 FLOW TO AND FROM GROUND WATER FOR EACH STREAM REACH WILL BE SAVED ON UNIT 7013
 STREAM OUTPUT WILL BE WRITTEN TO FILE ON UNIT   77


   STREAM NETWORK DESCRIPTION: 

   LAYER    ROW    COL   SEGMENT   REACH     LENGTH
                          NUMBER   NUMBER    IN CELL        
   --------------------------------------------------
      1     14      1       1        1    1.6667E+02
      1     14      2       1        2    1.6667E+02
      1     14      3       1        3    1.6667E+02
      1     14      4       1        4    1.6667E+02
      1     14      5       1        5    1.6667E+02
      1     14      6       1        6    1.6667E+02




 PCG -- CONJUGATE-GRADIENT SOLUTION PACKAGE, VERSION 7, 5/2/2005
 MAXIMUM OF    100 CALLS OF SOLUTION ROUTINE
 MAXIMUM OF    100 INTERNAL ITERATIONS PER CALL TO SOLUTION ROUTINE
 MATRIX PRECONDITIONING TYPE :    1



                                    SOLUTION BY THE CONJUGATE-GRADIENT METHOD
                                   -------------------------------------------
                    MAXIMUM NUMBER OF CALLS TO PCG ROUTINE =      100
                        MAXIMUM ITERATIONS PER CALL TO PCG =      100
                               MATRIX PRECONDITIONING TYPE =        1
        RELAXATION FACTOR (ONLY USED WITH PRECOND. TYPE 1) =    0.10000E+01
 PARAMETER OF POLYNOMIAL PRECOND. = 2 (2) OR IS CALCULATED :        2
                         HEAD CHANGE CRITERION FOR CLOSURE =    0.10000E-03
                     RESIDUAL CHANGE CRITERION FOR CLOSURE =    0.10000E+00
            PCG HEAD AND RESIDUAL CHANGE PRINTOUT INTERVAL =        1
     PRINTING FROM SOLVER IS LIMITED(1) OR SUPPRESSED (>1) =        1
                            STEADY-STATE DAMPING PARAMETER =    0.10000E+01
                               TRANSIENT DAMPING PARAMETER =    0.10000E+01


 FMP3 -- FARM PROCESS, VERSION 3.0, 06/15/1998 03:36:54
 INPUT READ FROM UNIT
 # FMP2 Example Model -- ZERO SCENARIO / EQUAL APPROPRATION
               1 Named Parameters     
               0 Child Model Well List entries
              15 Parent Model Well List entries used at Maximum for Child Model Wells

 DIMENSIONS:
   MAXIMUM OF     30 FARM WELLS
   MAXIMUM OF        8 FARMS
   TOTAL OF        3 SOIL-TYPES
   TOTAL OF        6 CROP-TYPES

 WHEN TO READ SETTINGS:
   ROOT ZONE DEPTHS ............................  SPECIFIED FOR EACH STRESS PERIOD
                                                  IN PARENT MODEL AND USED IN CHILD MODEL WHERE NEEDED

   CROP COEFFICIENTS ...........................  AND
   REFERENCE EVAPOTRANSPIRATION FLUX ...........  SPECIFIED FOR EACH STRESS PERIOD
                                                  IN PARENT MODEL AND USED IN CHILD MODEL WHERE NEEDED

   PRECIPITATION FLUX ..........................  SPECIFIED FOR EACH STRESS PERIOD
                                                  IN PARENT MODEL AND USED IN CHILD MODEL WHERE NEEDED

   FRACTIONS OF TRANS. & EVAP. OF CONSUMPTIVE USE SPECIFIED FOR EACH STRESS PERIOD
                                                  IN PARENT MODEL AND USED IN CHILD MODEL WHERE NEEDED

   FRACTIONS OF IN-EFFICIENT LOSSES TO SW-RUNOFF  SPECIFIED FOR EACH STRESS PERIOD
                                                  IN PARENT MODEL AND USED IN CHILD MODEL WHERE NEEDED

   ON-FARM EFFICIENCIES ........................  SPECIFIED FOR EACH STRESS PERIOD
                                                  IN PARENT MODEL AND USED IN CHILD MODEL WHERE NEEDED

   WATER-BALANCE SUBREGIONS (FARMS).............  SPECIFIED FOR THE ENTIRE SIMULATION

 WATER POLICY SETTINGS:
   EFFICIENCY BEHAVIOR: CONSERVATIVE BEHAVIOR: CONSTANT EFFICIENCY OVER A TIME STEP
                        EFFICIENCY DOES NOT VARY WITH CHANGING GROUNDWATER LEVEL, BUT
                        DELIVERY MAY VARY WITH CHANGING GROUNDWATER LEVEL
                        EFF. RESET TO SPEC. EFF. AT BEG. OF EACH TIME STEP
   NO DEFICIENCY SCENARIO APPLIED (ZERO SCENARIO)
     ASSUMPTION FOR DEFICIENCY CASE: SUPPLY = DEMAND, I.E.
     SUPPLY SUFFICIENTLY SUPPLEMENTED FROM OUTSIDE MODELING DOMAIN
   NO NON-IRRIGATION-SEASON HAS BEEN SELECTED
   NO GROUNDWATER ALLOTMENTS (Volumetric Rate) HAVE BEEN SELECTED -- Maximum Groundwater Delivery limited by Total Capacity of all Farm wells per Farm per Stress Period

 SURFACE-WATER SETTINGS (SUPPLY / RETURNFLOW / RIGHTS:
   FARM DELIVERY REQUIREMENT SUPPLIED BY:
     NON-ROUTED SURFACE-WATER DELIVERIES (FIRST PRIORITY).
     MAXIMUM NUMBER OF NON-ROUTED DELIVERY TYPES =    1
   NO ROUTED SURFACE-WATER DELIVERY EXISTS
   NO SEMI-ROUTED RUNOFF-RETURNFLOW EXISTS
   FARM RUNOFF RETURNED TO STREAM-NETWORK BY:
     FULLY ROUTED SURFACE-WATER RETURNFLOW FROM ALL FARMS
     TO ALL REACHES OF ANY STREAM SEGMENT LOCATED WITHIN EACH FARM

 PRINT SETTINGS:
   FARM WELL FLOW RATES:
     A LIST (FARM-WELL ID, FARM ID, LAY, ROW, COL, RATE) IS SAVED 
     ON ASCII FILE "FWELLS.OUT" FOR ALL TIME STEPS
   FARM NET RECHARGE FLOW RATES:
     A 2D INTEGER-ARRAY OF EACH CELLS UPPERMOST ACTIVE LAYER, AND
     A 2D REAL-ARRAY OF EACH CELLS NET RECHARGE RATE 
     WILL BE SAVED AS BINARY FILE ON UNIT 7013 FOR TIME STEPS, FOR WHICH IN OUTPUT CONTOL
     "SAVE BUDGET" IS SPECIFIED (USING WORDS), OR ICBCFL IS NOT 0 (USING NUMERIC CODES)
   FARM DEMAND & SUPPLY FLOW RATES:
     A LIST OF INITIAL DEMAND & SUPPLY FLOW RATES, AND OF
     FINAL DEMAND AND SUPPLY FLOW RATES AFTER THE APPLICATION OF A DEFICIENCY SCENARIO
     WILL BE SAVED ON ASCII-FILE "FDS.OUT" FOR ALL TIME STEPS.  LIST =
     (PER,TSTP,TIME,FID,OFE,
      TFDR-INI,NR-SWD-INI,R-SWD-INI,QREQ,TFDR-FIN,NR-SWD-FIN,R-SWD-FIN,QREQ,Q,DEF-FLAG)
     (<-- BEFORE DEFICIENCY SCENARIO --> <--       AFTER DEFICIENCY SCENARIO       -->)
   DETAILED FARM BUDGET:
     A LIST OF VOLUMETRIC FLOW RATES FOR ANY TIME STEP [L^3/T], AND OF CUMULATIVE VOLUMES [L^3] 
     WILL BE SAVED ON ASCII-FILE "FB_DETAILS.OUT" FOR ALL TIME STEPS.
      LIST = (PER,TSTP,TIME,FID;
      RATES INTO FARM: Q-p-in, Q-nrd-in, Q-srd-in, Q-rd-in, Q-wells-in, Q-egw-in, Q-tgw-in, Q-ext-in, Q-tot-in,
      RATES OUT OF FARM: Q-ei-out, Q-ep-out, Q-egw-out, Q-ti-out, Q-tp-out, Q-tgw-out Q-run-out, Q-dp-out, Q-nrd-out, Q-srd-out, Q-rd-out, Q-wells-out, Q-tot-out,
      RATE BUDGET ERROR: Q-in-minus-out, Q-Discrepancy [%];
      CUMULATIVE VOLUMES INTO FARM: V-p-in, V-nrd-in, V-srd-in, V-rd-in, V-wells-in, V-egw-in, V-tgw-in, V-ext-in, V-tot-in,
      CUMULATIVE VOLUMES OUT OF FARM: V-ei-out, V-ep-out, V-egw-out, V-ti-out, V-tp-out, V-tgw-out V-run-out, V-dp-out, V-nrd-out, V-srd-out, V-rd-out, V-wells-out, V-tot-out,
      VOLUMETRIC BUDGET ERROR: Q-in-minus-out, Q-Discrepancy [%])
   ROUTING INFOMATION:
     WRITTEN TO ASCII FILE "ROUT.OUT" FOR FIRST STRESS PERIOD ONLY
 
 AUXILIARY FARM WELL PARAMETER: QMAXRESET       
 AUXILIARY FARM WELL PARAMETER: LGRGRID         


     1 Farm Well parameters

 PARAMETER NAME:WELLS1       TYPE:QMAX
 Parameter value from package file is:    1000.0    
   NUMBER OF ENTRIES:      0
 
 WELL NO. LAYER    ROW    COL  F-WELL ID    FARM ID      QMAXfac         QMAXRESET       LGRGRID         
 --------------------------------------------------------------------------------------------------------
       2      1      2      2          5          2      2.0000E+00     0    0
       3      1      5      5          6          2      1.0000E+00     0    0
1
                            STRESS PERIOD NO.      1, LENGTH =   30.42000    
                            -----------------------------------------------

                              NUMBER OF TIME STEPS =     2

                               MULTIPLIER FOR DELT =     1.000

                            INITIAL TIME STEP SIZE =   15.21000    

PARAMETERS HAVE BEEN USED IN PACKAGES
THE CURRENT STORAGE FOR PARAMETERS IS: 
# PARAMETER=         1 WITH MAX STORAGE (MXPAR)  OF      2000
# INSTANCES=         0 WITH MAX STORAGE (MXINST) OF     50000
# CLUSTERS =         0 WITH MAX STORAGE (MXCLST) OF   2000000
YOU CAN INCREASE/DECREASE STORAGE WITH BAS OPTION:
MAXPARAM  MXPAR  MXCLST MXINST



 CLASSIFICATION & COUNT OF STREAM SEGMENTS BASED ON SOURCE OF INFLOW:

                HEADWATER     DIVERSION     RECEIVES TRIBUTARY FLOW
                ---------     ---------     -----------------------
                     1              0               0




 WELL NO. LAYER    ROW    COL  F-WELL ID    FARM ID         QMAX         QMAXRESET       LGRGRID         
 --------------------------------------------------------------------------------------------------------
       1      1      2      2          5          2      2.0000E+00     0    0
       2      1      5      5          6          2      1.0000E+00     0    0

 Parameter:  WELLS1
 WELL NO. LAYER    ROW    COL  F-WELL ID    FARM ID         QMAX         QMAXRESET       LGRGRID         
 --------------------------------------------------------------------------------------------------------
       3      1      2      2          5          2      2.0000E+03              0              0
       4      1      5      5          6          2      1.0000E+03              0              0

 NUMBER OF ACTIVE FARM WELLS:        4

 FARM-ID  NUMBER OF WELLS PER FARM  TOTAL MAX.CAPACITY PER FARM
       1                         0                       0.0000
       2                         4                    3003.0000
       3                         0                       0.0000
       4                         0                       0.0000
       5                         0                       0.0000
       6                         0                       0.0000
       7                         0                       0.0000
       8                         0                       0.0000

Transpiratory and Evaporative Fractions of Crop Consumptive Use
    % Transpiration % Evap. for Precip. % Evap. for Irrig.
    3          0.957          0.043          0.043
    5          0.777          0.223          0.000

FRACTIONS OF IN-EFFICIENT LOSSES TO SW-RUNOFF FROM 
     PRECIPITATION:  IRRIGATION:
    3          0.600          0.500
    5          0.840          0.000
 
 SOLVING FOR HEAD 


     3 CALLS TO PCG ROUTINE FOR TIME STEP   1 IN STRESS PERIOD    1
    16 TOTAL ITERATIONS


     3 CALLS TO PCG ROUTINE FOR TIME STEP   1 IN STRESS PERIOD    1
    10 TOTAL ITERATIONS


     2 CALLS TO PCG ROUTINE FOR TIME STEP   1 IN STRESS PERIOD    1
     7 TOTAL ITERATIONS


     2 CALLS TO PCG ROUTINE FOR TIME STEP   1 IN STRESS PERIOD    1
     6 TOTAL ITERATIONS


     2 CALLS TO PCG ROUTINE FOR TIME STEP   1 IN STRESS PERIOD    1
     6 TOTAL ITERATIONS


     2 CALLS TO PCG ROUTINE FOR TIME STEP   1 IN STRESS PERIOD    1
     6 TOTAL ITERATIONS


     2 CALLS TO PCG ROUTINE FOR TIME STEP   1 IN STRESS PERIOD    1
     5 TOTAL ITERATIONS


     2 CALLS TO PCG ROUTINE FOR TIME STEP   1 IN STRESS PERIOD    1
     4 TOTAL ITERATIONS


     2 CALLS TO PCG ROUTINE FOR TIME STEP   1 IN STRESS PERIOD    1
     4 TOTAL ITERATIONS


     2 CALLS TO PCG ROUTINE FOR TIME STEP   1 IN STRESS PERIOD    1
     3 TOTAL ITERATIONS


     2 CALLS TO PCG ROUTINE FOR TIME STEP   1 IN STRESS PERIOD    1
     3 TOTAL ITERATIONS

 OUTPUT CONTROL FOR STRESS PERIOD      1   TIME STEP     1
    SAVE HEAD FOR ALL LAYERS
    SAVE BUDGET
 UBDSV1 SAVING "         STORAGE" ON UNIT7013 AT TIME STEP    1, STRESS PERIOD   1
 UBDSV2 SAVING "   CONSTANT HEAD" ON UNIT7013 AT TIME STEP    1, STRESS PERIOD   1
 UBDSV1 SAVING "FLOW RIGHT FACE " ON UNIT7013 AT TIME STEP    1, STRESS PERIOD   1
 UBDSV1 SAVING "FLOW FRONT FACE " ON UNIT7013 AT TIME STEP    1, STRESS PERIOD   1
 UBDSV1 SAVING "FLOW LOWER FACE " ON UNIT7013 AT TIME STEP    1, STRESS PERIOD   1
 UBDSV4 SAVING "  STREAM LEAKAGE" ON UNIT7013 AT TIME STEP    1, STRESS PERIOD   1



 UBDSV3 SAVING "FARM  NET  RECH." ON UNIT7013 AT TIME STEP    1, STRESS PERIOD   1
 UBDSV4 SAVING " GHOST-NODE HEAD" ON UNIT7013 AT TIME STEP    1, STRESS PERIOD   1

 HEAD WILL BE SAVED ON UNIT 2213 AT END OF TIME STEP     1, STRESS PERIOD      1
1
  FLUX ACROSS PARENT-CHILD INTERFACE AT TIME STEP  1 IN STRESS PERIOD    1
  ------------------------------------------------------------------------
 G-N FLUX        PARENT        CHILD         DIFFERENCE      % DIFFERENCE
  RATE IN:      3.0156E+03    3.0154E+03     2.0703E-01        0.0069
 RATE OUT:      3.5928E+03    3.5928E+03     2.8809E-02        0.0008
 
 SOLVING FOR HEAD 
     3 CALLS TO PCG ROUTINE FOR TIME STEP   2 IN STRESS PERIOD    1
    12 TOTAL ITERATIONS
     2 CALLS TO PCG ROUTINE FOR TIME STEP   2 IN STRESS PERIOD    1
     7 TOTAL ITERATIONS
     2 CALLS TO PCG ROUTINE FOR TIME STEP   2 IN STRESS PERIOD    1
     7 TOTAL ITERATIONS
     2 CALLS TO PCG ROUTINE FOR TIME STEP   2 IN STRESS PERIOD    1
     6 TOTAL ITERATIONS
     2 CALLS TO PCG ROUTINE FOR TIME STEP   2 IN STRESS PERIOD    1
     6 TOTAL ITERATIONS
     2 CALLS TO PCG ROUTINE FOR TIME STEP   2 IN STRESS PERIOD    1
     5 TOTAL ITERATIONS
     2 CALLS TO PCG ROUTINE FOR TIME STEP   2 IN STRESS PERIOD    1
     5 TOTAL ITERATIONS
     2 CALLS TO PCG ROUTINE FOR TIME STEP   2 IN STRESS PERIOD    1
     4 TOTAL ITERATIONS
     2 CALLS TO PCG ROUTINE FOR TIME STEP   2 IN STRESS PERIOD    1
     4 TOTAL ITERATIONS
     2 CALLS TO PCG ROUTINE FOR TIME STEP   2 IN STRESS PERIOD    1
     3 TOTAL ITERATIONS

 OUTPUT CONTROL FOR STRESS PERIOD      1   TIME STEP     2
    SAVE BUDGET
 UBDSV1 SAVING "         STORAGE" ON UNIT7013 AT TIME STEP    2, STRESS PERIOD   1
 UBDSV2 SAVING "   CONSTANT HEAD" ON UNIT7013 AT TIME STEP    2, STRESS PERIOD   1
 UBDSV1 SAVING "FLOW RIGHT FACE " ON UNIT7013 AT TIME STEP    2, STRESS PERIOD   1
 UBDSV1 SAVING "FLOW FRONT FACE " ON UNIT7013 AT TIME STEP    2, STRESS PERIOD   1
 UBDSV1 SAVING "FLOW LOWER FACE " ON UNIT7013 AT TIME STEP    2, STRESS PERIOD   1
 UBDSV4 SAVING "  STREAM LEAKAGE" ON UNIT7013 AT TIME STEP    2, STRESS PERIOD   1



 UBDSV3 SAVING "FARM  NET  RECH." ON UNIT7013 AT TIME STEP    2, STRESS PERIOD   1
 UBDSV4 SAVING " GHOST-NODE HEAD" ON UNIT7013 AT TIME STEP    2, STRESS PERIOD   1
1
  VOLUMETRIC BUDGET FOR ENTIRE MODEL AT END OF TIME STEP    2 IN STRESS PERIOD      1
  ------------------------------------------------------------------------------

     CUMULATIVE VOLUMES      L**3       RATES FOR THIS TIME STEP      L**3/T
     ------------------                 ------------------------

           IN:                                      IN:
           ---                                      ---
             STORAGE =       17965.3125               STORAGE =         234.2555
       CONSTANT HEAD =           0.0000         CONSTANT HEAD =           0.0000
      STREAM LEAKAGE =           0.0000        STREAM LEAKAGE =           0.0000
          FARM WELLS =           0.0000            FARM WELLS =           0.0000
    FARM  NET  RECH. =       21396.4219      FARM  NET  RECH. =         716.5218
     GHOST-NODE HEAD =       97246.7188       GHOST-NODE HEAD =        3378.1833

            TOTAL IN =      136608.4531              TOTAL IN =        4328.9609

          OUT:                                     OUT:
          ----                                     ----
             STORAGE =        2246.5500               STORAGE =           9.5070
       CONSTANT HEAD =           0.0000         CONSTANT HEAD =           0.0000
      STREAM LEAKAGE =       28201.4648        STREAM LEAKAGE =         932.5626
          FARM WELLS =           0.0000            FARM WELLS =           0.0000
    FARM  NET  RECH. =           0.0000      FARM  NET  RECH. =           0.0000
     GHOST-NODE HEAD =      106161.2031       GHOST-NODE HEAD =        3386.9224

           TOTAL OUT =      136609.2188             TOTAL OUT =        4328.9922

            IN - OUT =          -0.7656              IN - OUT =      -3.1250E-02

 PERCENT DISCREPANCY =          -0.00     PERCENT DISCREPANCY =          -0.00






          TIME SUMMARY AT END OF TIME STEP     2 IN STRESS PERIOD      1
                    SECONDS     MINUTES      HOURS       DAYS        YEARS
                    -----------------------------------------------------------
   TIME STEP LENGTH 1.31414E+06  21902.      365.04      15.210     4.16427E-02
 STRESS PERIOD TIME 2.62829E+06  43805.      730.08      30.420     8.32854E-02
         TOTAL TIME 2.62829E+06  43805.      730.08      30.420     8.32854E-02
1
1
  FLUX ACROSS PARENT-CHILD INTERFACE AT TIME STEP  2 IN STRESS PERIOD    1
  ------------------------------------------------------------------------
 G-N FLUX        PARENT        CHILD         DIFFERENCE      % DIFFERENCE
  RATE IN:      3.3787E+03    3.3782E+03     5.4395E-01        0.0161
 RATE OUT:      3.3869E+03    3.3869E+03    -1.2695E-02       -0.0004
1
                            STRESS PERIOD NO.      2, LENGTH =   30.42000    
                            -----------------------------------------------

                              NUMBER OF TIME STEPS =     2

                               MULTIPLIER FOR DELT =     1.000

                            INITIAL TIME STEP SIZE =   15.21000    

 REUSING STREAM SEGMENT DATA FROM LAST STRESS PERIOD
 WELL NO. LAYER    ROW    COL  F-WELL ID    FARM ID         QMAX         QMAXRESET       LGRGRID         
 --------------------------------------------------------------------------------------------------------
       1      1      2      2          5          2      2.0000E+00     0    0
       2      1      5      5          6          2      1.0000E+00     0    0

 Parameter:  WELLS1
 WELL NO. LAYER    ROW    COL  F-WELL ID    FARM ID         QMAX         QMAXRESET       LGRGRID         
 --------------------------------------------------------------------------------------------------------
       3      1      2      2          5          2      2.0000E+03              0              0
       4      1      5      5          6          2      1.0000E+03              0              0

 NUMBER OF ACTIVE FARM WELLS:        4

 FARM-ID  NUMBER OF WELLS PER FARM  TOTAL MAX.CAPACITY PER FARM
       1                         0                       0.0000
       2                         4                    3003.0000
       3                         0                       0.0000
       4                         0                       0.0000
       5                         0                       0.0000
       6                         0                       0.0000
       7                         0                       0.0000
       8                         0                       0.0000

Transpiratory and Evaporative Fractions of Crop Consumptive Use
    % Transpiration % Evap. for Precip. % Evap. for Irrig.
    3          0.845          0.155          0.155
    5          0.783          0.217          0.000

FRACTIONS OF IN-EFFICIENT LOSSES TO SW-RUNOFF FROM 
     PRECIPITATION:  IRRIGATION:
    3          0.600          0.500
    5          0.850          0.000
 
 SOLVING FOR HEAD 


     3 CALLS TO PCG ROUTINE FOR TIME STEP   1 IN STRESS PERIOD    2
    11 TOTAL ITERATIONS


     2 CALLS TO PCG ROUTINE FOR TIME STEP   1 IN STRESS PERIOD    2
     8 TOTAL ITERATIONS


     2 CALLS TO PCG ROUTINE FOR TIME STEP   1 IN STRESS PERIOD    2
     7 TOTAL ITERATIONS


     2 CALLS TO PCG ROUTINE FOR TIME STEP   1 IN STRESS PERIOD    2
     6 TOTAL ITERATIONS


     2 CALLS TO PCG ROUTINE FOR TIME STEP   1 IN STRESS PERIOD    2
     5 TOTAL ITERATIONS


     2 CALLS TO PCG ROUTINE FOR TIME STEP   1 IN STRESS PERIOD    2
     5 TOTAL ITERATIONS


     2 CALLS TO PCG ROUTINE FOR TIME STEP   1 IN STRESS PERIOD    2
     4 TOTAL ITERATIONS


     2 CALLS TO PCG ROUTINE FOR TIME STEP   1 IN STRESS PERIOD    2
     4 TOTAL ITERATIONS


     2 CALLS TO PCG ROUTINE FOR TIME STEP   1 IN STRESS PERIOD    2
     3 TOTAL ITERATIONS


     2 CALLS TO PCG ROUTINE FOR TIME STEP   1 IN STRESS PERIOD    2
     3 TOTAL ITERATIONS

 OUTPUT CONTROL FOR STRESS PERIOD      2   TIME STEP     1
    SAVE BUDGET
 UBDSV1 SAVING "         STORAGE" ON UNIT7013 AT TIME STEP    1, STRESS PERIOD   2
 UBDSV2 SAVING "   CONSTANT HEAD" ON UNIT7013 AT TIME STEP    1, STRESS PERIOD   2
 UBDSV1 SAVING "FLOW RIGHT FACE " ON UNIT7013 AT TIME STEP    1, STRESS PERIOD   2
 UBDSV1 SAVING "FLOW FRONT FACE " ON UNIT7013 AT TIME STEP    1, STRESS PERIOD   2
 UBDSV1 SAVING "FLOW LOWER FACE " ON UNIT7013 AT TIME STEP    1, STRESS PERIOD   2
 UBDSV4 SAVING "  STREAM LEAKAGE" ON UNIT7013 AT TIME STEP    1, STRESS PERIOD   2



 UBDSV3 SAVING "FARM  NET  RECH." ON UNIT7013 AT TIME STEP    1, STRESS PERIOD   2
 UBDSV4 SAVING " GHOST-NODE HEAD" ON UNIT7013 AT TIME STEP    1, STRESS PERIOD   2
1
  FLUX ACROSS PARENT-CHILD INTERFACE AT TIME STEP  1 IN STRESS PERIOD    2
  ------------------------------------------------------------------------
 G-N FLUX        PARENT        CHILD         DIFFERENCE      % DIFFERENCE
  RATE IN:      3.5249E+03    3.5246E+03     3.2715E-01        0.0093
 RATE OUT:      3.4831E+03    3.4825E+03     5.8203E-01        0.0167
 
 SOLVING FOR HEAD 
     3 CALLS TO PCG ROUTINE FOR TIME STEP   2 IN STRESS PERIOD    2
    10 TOTAL ITERATIONS
     2 CALLS TO PCG ROUTINE FOR TIME STEP   2 IN STRESS PERIOD    2
     7 TOTAL ITERATIONS
     2 CALLS TO PCG ROUTINE FOR TIME STEP   2 IN STRESS PERIOD    2
     7 TOTAL ITERATIONS
     2 CALLS TO PCG ROUTINE FOR TIME STEP   2 IN STRESS PERIOD    2
     6 TOTAL ITERATIONS
     2 CALLS TO PCG ROUTINE FOR TIME STEP   2 IN STRESS PERIOD    2
     5 TOTAL ITERATIONS
     2 CALLS TO PCG ROUTINE FOR TIME STEP   2 IN STRESS PERIOD    2
     4 TOTAL ITERATIONS
     2 CALLS TO PCG ROUTINE FOR TIME STEP   2 IN STRESS PERIOD    2
     4 TOTAL ITERATIONS
     2 CALLS TO PCG ROUTINE FOR TIME STEP   2 IN STRESS PERIOD    2
     4 TOTAL ITERATIONS
     2 CALLS TO PCG ROUTINE FOR TIME STEP   2 IN STRESS PERIOD    2
     3 TOTAL ITERATIONS

 OUTPUT CONTROL FOR STRESS PERIOD      2   TIME STEP     2
    SAVE BUDGET
 UBDSV1 SAVING "         STORAGE" ON UNIT7013 AT TIME STEP    2, STRESS PERIOD   2
 UBDSV2 SAVING "   CONSTANT HEAD" ON UNIT7013 AT TIME STEP    2, STRESS PERIOD   2
 UBDSV1 SAVING "FLOW RIGHT FACE " ON UNIT7013 AT TIME STEP    2, STRESS PERIOD   2
 UBDSV1 SAVING "FLOW FRONT FACE " ON UNIT7013 AT TIME STEP    2, STRESS PERIOD   2
 UBDSV1 SAVING "FLOW LOWER FACE " ON UNIT7013 AT TIME STEP    2, STRESS PERIOD   2
 UBDSV4 SAVING "  STREAM LEAKAGE" ON UNIT7013 AT TIME STEP    2, STRESS PERIOD   2



 UBDSV3 SAVING "FARM  NET  RECH." ON UNIT7013 AT TIME STEP    2, STRESS PERIOD   2
 UBDSV4 SAVING " GHOST-NODE HEAD" ON UNIT7013 AT TIME STEP    2, STRESS PERIOD   2
1
  VOLUMETRIC BUDGET FOR ENTIRE MODEL AT END OF TIME STEP    2 IN STRESS PERIOD      2
  ------------------------------------------------------------------------------

     CUMULATIVE VOLUMES      L**3       RATES FOR THIS TIME STEP      L**3/T
     ------------------                 ------------------------

           IN:                                      IN:
           ---                                      ---
             STORAGE =       17980.8965               STORAGE =           0.0000
       CONSTANT HEAD =           0.0000         CONSTANT HEAD =           0.0000
      STREAM LEAKAGE =           0.0000        STREAM LEAKAGE =           0.0000
          FARM WELLS =           0.0000            FARM WELLS =           0.0000
    FARM  NET  RECH. =       55870.3242      FARM  NET  RECH. =        1119.7079
     GHOST-NODE HEAD =      206298.3438       GHOST-NODE HEAD =        3645.1360

            TOTAL IN =      280149.5625              TOTAL IN =        4764.8438

          OUT:                                     OUT:
          ----                                     ----
             STORAGE =        8441.0996               STORAGE =         180.8679
       CONSTANT HEAD =           0.0000         CONSTANT HEAD =           0.0000
      STREAM LEAKAGE =       58716.8047        STREAM LEAKAGE =        1042.7133
          FARM WELLS =           0.0000            FARM WELLS =           0.0000
    FARM  NET  RECH. =           0.0000      FARM  NET  RECH. =           0.0000
     GHOST-NODE HEAD =      212993.4844       GHOST-NODE HEAD =        3541.2996

           TOTAL OUT =      280151.3750             TOTAL OUT =        4764.8809

            IN - OUT =          -1.8125              IN - OUT =      -3.7109E-02

 PERCENT DISCREPANCY =          -0.00     PERCENT DISCREPANCY =          -0.00






          TIME SUMMARY AT END OF TIME STEP     2 IN STRESS PERIOD      2
                    SECONDS     MINUTES      HOURS       DAYS        YEARS
                    -----------------------------------------------------------
   TIME STEP LENGTH 1.31414E+06  21902.      365.04      15.210     4.16427E-02
 STRESS PERIOD TIME 2.62829E+06  43805.      730.08      30.420     8.32854E-02
         TOTAL TIME 5.25658E+06  87610.      1460.2      60.840     0.16657    
1
1
  FLUX ACROSS PARENT-CHILD INTERFACE AT TIME STEP  2 IN STRESS PERIOD    2
  ------------------------------------------------------------------------
 G-N FLUX        PARENT        CHILD         DIFFERENCE      % DIFFERENCE
  RATE IN:      3.6452E+03    3.6451E+03     6.5186E-02        0.0018
 RATE OUT:      3.5420E+03    3.5413E+03     6.5405E-01        0.0185
1
                            STRESS PERIOD NO.      3, LENGTH =   30.42000    
                            -----------------------------------------------

                              NUMBER OF TIME STEPS =     2

                               MULTIPLIER FOR DELT =     1.000

                            INITIAL TIME STEP SIZE =   15.21000    

 REUSING STREAM SEGMENT DATA FROM LAST STRESS PERIOD

 Parameter:  WELLS1
 WELL NO. LAYER    ROW    COL  F-WELL ID    FARM ID         QMAX         QMAXRESET       LGRGRID         
 --------------------------------------------------------------------------------------------------------
       1      1      2      2          5          2      2.0000E+03              0              0
       2      1      5      5          6          2      1.0000E+03              0              0

 NUMBER OF ACTIVE FARM WELLS:        2

 FARM-ID  NUMBER OF WELLS PER FARM  TOTAL MAX.CAPACITY PER FARM
       1                         0                       0.0000
       2                         2                    3000.0000
       3                         0                       0.0000
       4                         0                       0.0000
       5                         0                       0.0000
       6                         0                       0.0000
       7                         0                       0.0000
       8                         0                       0.0000

Transpiratory and Evaporative Fractions of Crop Consumptive Use
    % Transpiration % Evap. for Precip. % Evap. for Irrig.
    3          0.000          1.000          1.000
    5          0.835          0.165          0.000

FRACTIONS OF IN-EFFICIENT LOSSES TO SW-RUNOFF FROM 
     PRECIPITATION:  IRRIGATION:
    3          0.600          0.500
    5          0.500          0.000
 
 SOLVING FOR HEAD 


     3 CALLS TO PCG ROUTINE FOR TIME STEP   1 IN STRESS PERIOD    3
    12 TOTAL ITERATIONS


     3 CALLS TO PCG ROUTINE FOR TIME STEP   1 IN STRESS PERIOD    3
     9 TOTAL ITERATIONS


     3 CALLS TO PCG ROUTINE FOR TIME STEP   1 IN STRESS PERIOD    3
     9 TOTAL ITERATIONS


     2 CALLS TO PCG ROUTINE FOR TIME STEP   1 IN STRESS PERIOD    3
     6 TOTAL ITERATIONS


     2 CALLS TO PCG ROUTINE FOR TIME STEP   1 IN STRESS PERIOD    3
     5 TOTAL ITERATIONS


     2 CALLS TO PCG ROUTINE FOR TIME STEP   1 IN STRESS PERIOD    3
     5 TOTAL ITERATIONS


     2 CALLS TO PCG ROUTINE FOR TIME STEP   1 IN STRESS PERIOD    3
     4 TOTAL ITERATIONS


     2 CALLS TO PCG ROUTINE FOR TIME STEP   1 IN STRESS PERIOD    3
     3 TOTAL ITERATIONS


     2 CALLS TO PCG ROUTINE FOR TIME STEP   1 IN STRESS PERIOD    3
     3 TOTAL ITERATIONS


     2 CALLS TO PCG ROUTINE FOR TIME STEP   1 IN STRESS PERIOD    3
     3 TOTAL ITERATIONS

 OUTPUT CONTROL FOR STRESS PERIOD      3   TIME STEP     1
    SAVE BUDGET
 UBDSV1 SAVING "         STORAGE" ON UNIT7013 AT TIME STEP    1, STRESS PERIOD   3
 UBDSV2 SAVING "   CONSTANT HEAD" ON UNIT7013 AT TIME STEP    1, STRESS PERIOD   3
 UBDSV1 SAVING "FLOW RIGHT FACE " ON UNIT7013 AT TIME STEP    1, STRESS PERIOD   3
 UBDSV1 SAVING "FLOW FRONT FACE " ON UNIT7013 AT TIME STEP    1, STRESS PERIOD   3
 UBDSV1 SAVING "FLOW LOWER FACE " ON UNIT7013 AT TIME STEP    1, STRESS PERIOD   3
 UBDSV4 SAVING "  STREAM LEAKAGE" ON UNIT7013 AT TIME STEP    1, STRESS PERIOD   3



 UBDSV3 SAVING "FARM  NET  RECH." ON UNIT7013 AT TIME STEP    1, STRESS PERIOD   3
 UBDSV4 SAVING " GHOST-NODE HEAD" ON UNIT7013 AT TIME STEP    1, STRESS PERIOD   3
1
  FLUX ACROSS PARENT-CHILD INTERFACE AT TIME STEP  1 IN STRESS PERIOD    3
  ------------------------------------------------------------------------
 G-N FLUX        PARENT        CHILD         DIFFERENCE      % DIFFERENCE
  RATE IN:      3.5446E+03    3.5444E+03     2.1997E-01        0.0062
 RATE OUT:      3.7196E+03    3.7193E+03     2.4902E-01        0.0067
 
 SOLVING FOR HEAD 
     3 CALLS TO PCG ROUTINE FOR TIME STEP   2 IN STRESS PERIOD    3
    13 TOTAL ITERATIONS
     3 CALLS TO PCG ROUTINE FOR TIME STEP   2 IN STRESS PERIOD    3
     9 TOTAL ITERATIONS
     2 CALLS TO PCG ROUTINE FOR TIME STEP   2 IN STRESS PERIOD    3
     7 TOTAL ITERATIONS
     2 CALLS TO PCG ROUTINE FOR TIME STEP   2 IN STRESS PERIOD    3
     6 TOTAL ITERATIONS
     2 CALLS TO PCG ROUTINE FOR TIME STEP   2 IN STRESS PERIOD    3
     5 TOTAL ITERATIONS
     2 CALLS TO PCG ROUTINE FOR TIME STEP   2 IN STRESS PERIOD    3
     3 TOTAL ITERATIONS
     2 CALLS TO PCG ROUTINE FOR TIME STEP   2 IN STRESS PERIOD    3
     3 TOTAL ITERATIONS
     2 CALLS TO PCG ROUTINE FOR TIME STEP   2 IN STRESS PERIOD    3
     3 TOTAL ITERATIONS
     2 CALLS TO PCG ROUTINE FOR TIME STEP   2 IN STRESS PERIOD    3
     3 TOTAL ITERATIONS

 OUTPUT CONTROL FOR STRESS PERIOD      3   TIME STEP     2
    PRINT BUDGET
    SAVE HEAD FOR ALL LAYERS
    SAVE BUDGET
 UBDSV1 SAVING "         STORAGE" ON UNIT7013 AT TIME STEP    2, STRESS PERIOD   3
 UBDSV2 SAVING "   CONSTANT HEAD" ON UNIT7013 AT TIME STEP    2, STRESS PERIOD   3
 UBDSV1 SAVING "FLOW RIGHT FACE " ON UNIT7013 AT TIME STEP    2, STRESS PERIOD   3
 UBDSV1 SAVING "FLOW FRONT FACE " ON UNIT7013 AT TIME STEP    2, STRESS PERIOD   3
 UBDSV1 SAVING "FLOW LOWER FACE " ON UNIT7013 AT TIME STEP    2, STRESS PERIOD   3
 UBDSV4 SAVING "  STREAM LEAKAGE" ON UNIT7013 AT TIME STEP    2, STRESS PERIOD   3



 UBDSV3 SAVING "FARM  NET  RECH." ON UNIT7013 AT TIME STEP    2, STRESS PERIOD   3
 UBDSV4 SAVING " GHOST-NODE HEAD" ON UNIT7013 AT TIME STEP    2, STRESS PERIOD   3

 HEAD WILL BE SAVED ON UNIT 2213 AT END OF TIME STEP     2, STRESS PERIOD      3
1
  VOLUMETRIC BUDGET FOR ENTIRE MODEL AT END OF TIME STEP    2 IN STRESS PERIOD      3
  ------------------------------------------------------------------------------

     CUMULATIVE VOLUMES      L**3       RATES FOR THIS TIME STEP      L**3/T
     ------------------                 ------------------------

           IN:                                      IN:
           ---                                      ---
             STORAGE =       28588.2852               STORAGE =         326.0930
       CONSTANT HEAD =           0.0000         CONSTANT HEAD =           0.0000
      STREAM LEAKAGE =           0.0000        STREAM LEAKAGE =           0.0000
          FARM WELLS =           0.0000            FARM WELLS =           0.0000
    FARM  NET  RECH. =       81219.3125      FARM  NET  RECH. =         833.3000
     GHOST-NODE HEAD =      313162.8750       GHOST-NODE HEAD =        3481.5159

            TOTAL IN =      422970.4688              TOTAL IN =        4640.9092

          OUT:                                     OUT:
          ----                                     ----
             STORAGE =        8441.2637               STORAGE =           0.0000
       CONSTANT HEAD =           0.0000         CONSTANT HEAD =           0.0000
      STREAM LEAKAGE =       84161.8750        STREAM LEAKAGE =         772.2114
          FARM WELLS =           0.0000            FARM WELLS =           0.0000
    FARM  NET  RECH. =        2995.5476      FARM  NET  RECH. =          67.9702
     GHOST-NODE HEAD =      327373.5312       GHOST-NODE HEAD =        3800.7261

           TOTAL OUT =      422972.2188             TOTAL OUT =        4640.9077

            IN - OUT =          -1.7500              IN - OUT =       1.4648E-03

 PERCENT DISCREPANCY =          -0.00     PERCENT DISCREPANCY =           0.00






          TIME SUMMARY AT END OF TIME STEP     2 IN STRESS PERIOD      3
                    SECONDS     MINUTES      HOURS       DAYS        YEARS
                    -----------------------------------------------------------
   TIME STEP LENGTH 1.31414E+06  21902.      365.04      15.210     4.16427E-02
 STRESS PERIOD TIME 2.62829E+06  43805.      730.08      30.420     8.32854E-02
         TOTAL TIME 7.88486E+06 1.31414E+05  2190.2      91.260     0.24986    
1
1
  FLUX ACROSS PARENT-CHILD INTERFACE AT TIME STEP  2 IN STRESS PERIOD    3
  ------------------------------------------------------------------------
 G-N FLUX        PARENT        CHILD         DIFFERENCE      % DIFFERENCE
  RATE IN:      3.4821E+03    3.4815E+03     5.9253E-01        0.0170
 RATE OUT:      3.8003E+03    3.8007E+03    -4.2847E-01       -0.0113
1
                            STRESS PERIOD NO.      4, LENGTH =   30.42000    
                            -----------------------------------------------

                              NUMBER OF TIME STEPS =     2

                               MULTIPLIER FOR DELT =     1.000

                            INITIAL TIME STEP SIZE =   15.21000    

 REUSING STREAM SEGMENT DATA FROM LAST STRESS PERIOD

 Parameter:  WELLS1
 WELL NO. LAYER    ROW    COL  F-WELL ID    FARM ID         QMAX         QMAXRESET       LGRGRID         
 --------------------------------------------------------------------------------------------------------
       1      1      2      2          5          2      2.0000E+03              0              0
       2      1      5      5          6          2      1.0000E+03              0              0

 NUMBER OF ACTIVE FARM WELLS:        2

 FARM-ID  NUMBER OF WELLS PER FARM  TOTAL MAX.CAPACITY PER FARM
       1                         0                       0.0000
       2                         2                    3000.0000
       3                         0                       0.0000
       4                         0                       0.0000
       5                         0                       0.0000
       6                         0                       0.0000
       7                         0                       0.0000
       8                         0                       0.0000

Transpiratory and Evaporative Fractions of Crop Consumptive Use
    % Transpiration % Evap. for Precip. % Evap. for Irrig.
    3          0.000          1.000          1.000
    5          0.887          0.113          0.000

FRACTIONS OF IN-EFFICIENT LOSSES TO SW-RUNOFF FROM 
     PRECIPITATION:  IRRIGATION:
    3          0.600          0.500
    5          0.500          0.000
 
 SOLVING FOR HEAD 


     3 CALLS TO PCG ROUTINE FOR TIME STEP   1 IN STRESS PERIOD    4
    13 TOTAL ITERATIONS


     3 CALLS TO PCG ROUTINE FOR TIME STEP   1 IN STRESS PERIOD    4
    12 TOTAL ITERATIONS


     3 CALLS TO PCG ROUTINE FOR TIME STEP   1 IN STRESS PERIOD    4
    10 TOTAL ITERATIONS


     2 CALLS TO PCG ROUTINE FOR TIME STEP   1 IN STRESS PERIOD    4
     7 TOTAL ITERATIONS


     2 CALLS TO PCG ROUTINE FOR TIME STEP   1 IN STRESS PERIOD    4
     7 TOTAL ITERATIONS


     2 CALLS TO PCG ROUTINE FOR TIME STEP   1 IN STRESS PERIOD    4
     7 TOTAL ITERATIONS


     2 CALLS TO PCG ROUTINE FOR TIME STEP   1 IN STRESS PERIOD    4
     6 TOTAL ITERATIONS


     2 CALLS TO PCG ROUTINE FOR TIME STEP   1 IN STRESS PERIOD    4
     6 TOTAL ITERATIONS


     2 CALLS TO PCG ROUTINE FOR TIME STEP   1 IN STRESS PERIOD    4
     4 TOTAL ITERATIONS


     2 CALLS TO PCG ROUTINE FOR TIME STEP   1 IN STRESS PERIOD    4
     4 TOTAL ITERATIONS


     2 CALLS TO PCG ROUTINE FOR TIME STEP   1 IN STRESS PERIOD    4
     4 TOTAL ITERATIONS


     2 CALLS TO PCG ROUTINE FOR TIME STEP   1 IN STRESS PERIOD    4
     4 TOTAL ITERATIONS


     2 CALLS TO PCG ROUTINE FOR TIME STEP   1 IN STRESS PERIOD    4
     3 TOTAL ITERATIONS


     1 CALLS TO PCG ROUTINE FOR TIME STEP   1 IN STRESS PERIOD    4
     1 TOTAL ITERATIONS

 OUTPUT CONTROL FOR STRESS PERIOD      4   TIME STEP     1
    SAVE BUDGET
 UBDSV1 SAVING "         STORAGE" ON UNIT7013 AT TIME STEP    1, STRESS PERIOD   4
 UBDSV2 SAVING "   CONSTANT HEAD" ON UNIT7013 AT TIME STEP    1, STRESS PERIOD   4
 UBDSV1 SAVING "FLOW RIGHT FACE " ON UNIT7013 AT TIME STEP    1, STRESS PERIOD   4
 UBDSV1 SAVING "FLOW FRONT FACE " ON UNIT7013 AT TIME STEP    1, STRESS PERIOD   4
 UBDSV1 SAVING "FLOW LOWER FACE " ON UNIT7013 AT TIME STEP    1, STRESS PERIOD   4
 UBDSV4 SAVING "  STREAM LEAKAGE" ON UNIT7013 AT TIME STEP    1, STRESS PERIOD   4



 UBDSV3 SAVING "FARM  NET  RECH." ON UNIT7013 AT TIME STEP    1, STRESS PERIOD   4
 UBDSV4 SAVING " GHOST-NODE HEAD" ON UNIT7013 AT TIME STEP    1, STRESS PERIOD   4
1
  FLUX ACROSS PARENT-CHILD INTERFACE AT TIME STEP  1 IN STRESS PERIOD    4
  ------------------------------------------------------------------------
 G-N FLUX        PARENT        CHILD         DIFFERENCE      % DIFFERENCE
  RATE IN:      3.0801E+03    3.0796E+03     4.3774E-01        0.0142
 RATE OUT:      3.6792E+03    3.6787E+03     4.5825E-01        0.0125
 
 SOLVING FOR HEAD 
     3 CALLS TO PCG ROUTINE FOR TIME STEP   2 IN STRESS PERIOD    4
    12 TOTAL ITERATIONS
     3 CALLS TO PCG ROUTINE FOR TIME STEP   2 IN STRESS PERIOD    4
    11 TOTAL ITERATIONS
     2 CALLS TO PCG ROUTINE FOR TIME STEP   2 IN STRESS PERIOD    4
     8 TOTAL ITERATIONS
     2 CALLS TO PCG ROUTINE FOR TIME STEP   2 IN STRESS PERIOD    4
     7 TOTAL ITERATIONS
     2 CALLS TO PCG ROUTINE FOR TIME STEP   2 IN STRESS PERIOD    4
     7 TOTAL ITERATIONS
     2 CALLS TO PCG ROUTINE FOR TIME STEP   2 IN STRESS PERIOD    4
     6 TOTAL ITERATIONS
     2 CALLS TO PCG ROUTINE FOR TIME STEP   2 IN STRESS PERIOD    4
     6 TOTAL ITERATIONS
     2 CALLS TO PCG ROUTINE FOR TIME STEP   2 IN STRESS PERIOD    4
     5 TOTAL ITERATIONS
     2 CALLS TO PCG ROUTINE FOR TIME STEP   2 IN STRESS PERIOD    4
     4 TOTAL ITERATIONS
     2 CALLS TO PCG ROUTINE FOR TIME STEP   2 IN STRESS PERIOD    4
     4 TOTAL ITERATIONS
     2 CALLS TO PCG ROUTINE FOR TIME STEP   2 IN STRESS PERIOD    4
     3 TOTAL ITERATIONS
     2 CALLS TO PCG ROUTINE FOR TIME STEP   2 IN STRESS PERIOD    4
     3 TOTAL ITERATIONS
     1 CALLS TO PCG ROUTINE FOR TIME STEP   2 IN STRESS PERIOD    4
     1 TOTAL ITERATIONS

 OUTPUT CONTROL FOR STRESS PERIOD      4   TIME STEP     2
    SAVE BUDGET
 UBDSV1 SAVING "         STORAGE" ON UNIT7013 AT TIME STEP    2, STRESS PERIOD   4
 UBDSV2 SAVING "   CONSTANT HEAD" ON UNIT7013 AT TIME STEP    2, STRESS PERIOD   4
 UBDSV1 SAVING "FLOW RIGHT FACE " ON UNIT7013 AT TIME STEP    2, STRESS PERIOD   4
 UBDSV1 SAVING "FLOW FRONT FACE " ON UNIT7013 AT TIME STEP    2, STRESS PERIOD   4
 UBDSV1 SAVING "FLOW LOWER FACE " ON UNIT7013 AT TIME STEP    2, STRESS PERIOD   4
 UBDSV4 SAVING "  STREAM LEAKAGE" ON UNIT7013 AT TIME STEP    2, STRESS PERIOD   4



 UBDSV3 SAVING "FARM  NET  RECH." ON UNIT7013 AT TIME STEP    2, STRESS PERIOD   4
 UBDSV4 SAVING " GHOST-NODE HEAD" ON UNIT7013 AT TIME STEP    2, STRESS PERIOD   4
1
  VOLUMETRIC BUDGET FOR ENTIRE MODEL AT END OF TIME STEP    2 IN STRESS PERIOD      4
  ------------------------------------------------------------------------------

     CUMULATIVE VOLUMES      L**3       RATES FOR THIS TIME STEP      L**3/T
     ------------------                 ------------------------

           IN:                                      IN:
           ---                                      ---
             STORAGE =       56677.4258               STORAGE =         898.2695
       CONSTANT HEAD =           0.0000         CONSTANT HEAD =           0.0000
      STREAM LEAKAGE =           0.0000        STREAM LEAKAGE =           0.0000
          FARM WELLS =           0.0000            FARM WELLS =           0.0000
    FARM  NET  RECH. =       86564.1094      FARM  NET  RECH. =         175.7000
     GHOST-NODE HEAD =      401086.9375       GHOST-NODE HEAD =        2701.0288

            TOTAL IN =      544328.5000              TOTAL IN =        3774.9983

          OUT:                                     OUT:
          ----                                     ----
             STORAGE =        8441.2637               STORAGE =           0.0000
       CONSTANT HEAD =           0.0000         CONSTANT HEAD =           0.0000
      STREAM LEAKAGE =       96167.8516        STREAM LEAKAGE =         290.4796
          FARM WELLS =           0.0000            FARM WELLS =           0.0000
    FARM  NET  RECH. =        3491.2295      FARM  NET  RECH. =           6.2886
     GHOST-NODE HEAD =      436230.1250       GHOST-NODE HEAD =        3478.2026

           TOTAL OUT =      544330.5000             TOTAL OUT =        3774.9707

            IN - OUT =          -2.0000              IN - OUT =       2.7588E-02

 PERCENT DISCREPANCY =          -0.00     PERCENT DISCREPANCY =           0.00






          TIME SUMMARY AT END OF TIME STEP     2 IN STRESS PERIOD      4
                    SECONDS     MINUTES      HOURS       DAYS        YEARS
                    -----------------------------------------------------------
   TIME STEP LENGTH 1.31414E+06  21902.      365.04      15.210     4.16427E-02
 STRESS PERIOD TIME 2.62829E+06  43805.      730.08      30.420     8.32854E-02
         TOTAL TIME 1.05132E+07 1.75219E+05  2920.3      121.68     0.33314    
1
1
  FLUX ACROSS PARENT-CHILD INTERFACE AT TIME STEP  2 IN STRESS PERIOD    4
  ------------------------------------------------------------------------
 G-N FLUX        PARENT        CHILD         DIFFERENCE      % DIFFERENCE
  RATE IN:      2.7009E+03    2.7010E+03    -1.1377E-01       -0.0042
 RATE OUT:      3.4787E+03    3.4782E+03     5.0366E-01        0.0145
1
                            STRESS PERIOD NO.      5, LENGTH =   30.42000    
                            -----------------------------------------------

                              NUMBER OF TIME STEPS =     2

                               MULTIPLIER FOR DELT =     1.000

                            INITIAL TIME STEP SIZE =   15.21000    

 REUSING STREAM SEGMENT DATA FROM LAST STRESS PERIOD

 Parameter:  WELLS1
 WELL NO. LAYER    ROW    COL  F-WELL ID    FARM ID         QMAX         QMAXRESET       LGRGRID         
 --------------------------------------------------------------------------------------------------------
       1      1      2      2          5          2      2.0000E+03              0              0
       2      1      5      5          6          2      1.0000E+03              0              0

 NUMBER OF ACTIVE FARM WELLS:        2

 FARM-ID  NUMBER OF WELLS PER FARM  TOTAL MAX.CAPACITY PER FARM
       1                         0                       0.0000
       2                         2                    3000.0000
       3                         0                       0.0000
       4                         0                       0.0000
       5                         0                       0.0000
       6                         0                       0.0000
       7                         0                       0.0000
       8                         0                       0.0000

Transpiratory and Evaporative Fractions of Crop Consumptive Use
    % Transpiration % Evap. for Precip. % Evap. for Irrig.
    3          0.000          1.000          1.000
    5          0.924          0.076          0.000

FRACTIONS OF IN-EFFICIENT LOSSES TO SW-RUNOFF FROM 
     PRECIPITATION:  IRRIGATION:
    3          0.600          0.500
    5          0.500          0.000
 
 SOLVING FOR HEAD 


     3 CALLS TO PCG ROUTINE FOR TIME STEP   1 IN STRESS PERIOD    5
    12 TOTAL ITERATIONS


     3 CALLS TO PCG ROUTINE FOR TIME STEP   1 IN STRESS PERIOD    5
    12 TOTAL ITERATIONS


     3 CALLS TO PCG ROUTINE FOR TIME STEP   1 IN STRESS PERIOD    5
    10 TOTAL ITERATIONS


     2 CALLS TO PCG ROUTINE FOR TIME STEP   1 IN STRESS PERIOD    5
     7 TOTAL ITERATIONS


     2 CALLS TO PCG ROUTINE FOR TIME STEP   1 IN STRESS PERIOD    5
     7 TOTAL ITERATIONS


     2 CALLS TO PCG ROUTINE FOR TIME STEP   1 IN STRESS PERIOD    5
     6 TOTAL ITERATIONS


     2 CALLS TO PCG ROUTINE FOR TIME STEP   1 IN STRESS PERIOD    5
     6 TOTAL ITERATIONS


     2 CALLS TO PCG ROUTINE FOR TIME STEP   1 IN STRESS PERIOD    5
     5 TOTAL ITERATIONS


     2 CALLS TO PCG ROUTINE FOR TIME STEP   1 IN STRESS PERIOD    5
     4 TOTAL ITERATIONS


     2 CALLS TO PCG ROUTINE FOR TIME STEP   1 IN STRESS PERIOD    5
     4 TOTAL ITERATIONS


     2 CALLS TO PCG ROUTINE FOR TIME STEP   1 IN STRESS PERIOD    5
     3 TOTAL ITERATIONS


     2 CALLS TO PCG ROUTINE FOR TIME STEP   1 IN STRESS PERIOD    5
     3 TOTAL ITERATIONS

 OUTPUT CONTROL FOR STRESS PERIOD      5   TIME STEP     1
    SAVE BUDGET
 UBDSV1 SAVING "         STORAGE" ON UNIT7013 AT TIME STEP    1, STRESS PERIOD   5
 UBDSV2 SAVING "   CONSTANT HEAD" ON UNIT7013 AT TIME STEP    1, STRESS PERIOD   5
 UBDSV1 SAVING "FLOW RIGHT FACE " ON UNIT7013 AT TIME STEP    1, STRESS PERIOD   5
 UBDSV1 SAVING "FLOW FRONT FACE " ON UNIT7013 AT TIME STEP    1, STRESS PERIOD   5
 UBDSV1 SAVING "FLOW LOWER FACE " ON UNIT7013 AT TIME STEP    1, STRESS PERIOD   5
 UBDSV4 SAVING "  STREAM LEAKAGE" ON UNIT7013 AT TIME STEP    1, STRESS PERIOD   5



 UBDSV3 SAVING "FARM  NET  RECH." ON UNIT7013 AT TIME STEP    1, STRESS PERIOD   5
 UBDSV4 SAVING " GHOST-NODE HEAD" ON UNIT7013 AT TIME STEP    1, STRESS PERIOD   5
1
  FLUX ACROSS PARENT-CHILD INTERFACE AT TIME STEP  1 IN STRESS PERIOD    5
  ------------------------------------------------------------------------
 G-N FLUX        PARENT        CHILD         DIFFERENCE      % DIFFERENCE
  RATE IN:      2.5374E+03    2.5370E+03     4.6436E-01        0.0183
 RATE OUT:      3.3467E+03    3.3466E+03     4.1504E-02        0.0012
 
 SOLVING FOR HEAD 
     3 CALLS TO PCG ROUTINE FOR TIME STEP   2 IN STRESS PERIOD    5
    11 TOTAL ITERATIONS
     3 CALLS TO PCG ROUTINE FOR TIME STEP   2 IN STRESS PERIOD    5
    12 TOTAL ITERATIONS
     2 CALLS TO PCG ROUTINE FOR TIME STEP   2 IN STRESS PERIOD    5
     8 TOTAL ITERATIONS
     2 CALLS TO PCG ROUTINE FOR TIME STEP   2 IN STRESS PERIOD    5
     7 TOTAL ITERATIONS
     2 CALLS TO PCG ROUTINE FOR TIME STEP   2 IN STRESS PERIOD    5
     7 TOTAL ITERATIONS
     2 CALLS TO PCG ROUTINE FOR TIME STEP   2 IN STRESS PERIOD    5
     7 TOTAL ITERATIONS
     2 CALLS TO PCG ROUTINE FOR TIME STEP   2 IN STRESS PERIOD    5
     6 TOTAL ITERATIONS
     2 CALLS TO PCG ROUTINE FOR TIME STEP   2 IN STRESS PERIOD    5
     5 TOTAL ITERATIONS
     2 CALLS TO PCG ROUTINE FOR TIME STEP   2 IN STRESS PERIOD    5
     5 TOTAL ITERATIONS
     2 CALLS TO PCG ROUTINE FOR TIME STEP   2 IN STRESS PERIOD    5
     4 TOTAL ITERATIONS
     2 CALLS TO PCG ROUTINE FOR TIME STEP   2 IN STRESS PERIOD    5
     3 TOTAL ITERATIONS
     2 CALLS TO PCG ROUTINE FOR TIME STEP   2 IN STRESS PERIOD    5
     3 TOTAL ITERATIONS

 OUTPUT CONTROL FOR STRESS PERIOD      5   TIME STEP     2
    SAVE BUDGET
 UBDSV1 SAVING "         STORAGE" ON UNIT7013 AT TIME STEP    2, STRESS PERIOD   5
 UBDSV2 SAVING "   CONSTANT HEAD" ON UNIT7013 AT TIME STEP    2, STRESS PERIOD   5
 UBDSV1 SAVING "FLOW RIGHT FACE " ON UNIT7013 AT TIME STEP    2, STRESS PERIOD   5
 UBDSV1 SAVING "FLOW FRONT FACE " ON UNIT7013 AT TIME STEP    2, STRESS PERIOD   5
 UBDSV1 SAVING "FLOW LOWER FACE " ON UNIT7013 AT TIME STEP    2, STRESS PERIOD   5
 UBDSV4 SAVING "  STREAM LEAKAGE" ON UNIT7013 AT TIME STEP    2, STRESS PERIOD   5



 UBDSV3 SAVING "FARM  NET  RECH." ON UNIT7013 AT TIME STEP    2, STRESS PERIOD   5
 UBDSV4 SAVING " GHOST-NODE HEAD" ON UNIT7013 AT TIME STEP    2, STRESS PERIOD   5
1
  VOLUMETRIC BUDGET FOR ENTIRE MODEL AT END OF TIME STEP    2 IN STRESS PERIOD      5
  ------------------------------------------------------------------------------

     CUMULATIVE VOLUMES      L**3       RATES FOR THIS TIME STEP      L**3/T
     ------------------                 ------------------------

           IN:                                      IN:
           ---                                      ---
             STORAGE =       79067.8125               STORAGE =         660.1100
       CONSTANT HEAD =           0.0000         CONSTANT HEAD =           0.0000
      STREAM LEAKAGE =        3089.7627        STREAM LEAKAGE =         185.8302
          FARM WELLS =           0.0000            FARM WELLS =           0.0000
    FARM  NET  RECH. =       86564.1094      FARM  NET  RECH. =           0.0000
     GHOST-NODE HEAD =      476876.1875       GHOST-NODE HEAD =        2445.8994

            TOTAL IN =      645597.8750              TOTAL IN =        3291.8396

          OUT:                                     OUT:
          ----                                     ----
             STORAGE =        8441.2637               STORAGE =           0.0000
       CONSTANT HEAD =           0.0000         CONSTANT HEAD =           0.0000
      STREAM LEAKAGE =       96433.1719        STREAM LEAKAGE =           0.0000
          FARM WELLS =           0.0000            FARM WELLS =           0.0000
    FARM  NET  RECH. =        3526.6760      FARM  NET  RECH. =           0.2129
     GHOST-NODE HEAD =      537198.1250       GHOST-NODE HEAD =        3291.6182

           TOTAL OUT =      645599.2500             TOTAL OUT =        3291.8311

            IN - OUT =          -1.3750              IN - OUT =       8.5449E-03

 PERCENT DISCREPANCY =          -0.00     PERCENT DISCREPANCY =           0.00






          TIME SUMMARY AT END OF TIME STEP     2 IN STRESS PERIOD      5
                    SECONDS     MINUTES      HOURS       DAYS        YEARS
                    -----------------------------------------------------------
   TIME STEP LENGTH 1.31414E+06  21902.      365.04      15.210     4.16427E-02
 STRESS PERIOD TIME 2.62829E+06  43805.      730.08      30.420     8.32854E-02
         TOTAL TIME 1.31414E+07 2.19024E+05  3650.4      152.10     0.41643    
1
1
  FLUX ACROSS PARENT-CHILD INTERFACE AT TIME STEP  2 IN STRESS PERIOD    5
  ------------------------------------------------------------------------
 G-N FLUX        PARENT        CHILD         DIFFERENCE      % DIFFERENCE
  RATE IN:      2.4465E+03    2.4459E+03     6.4160E-01        0.0262
 RATE OUT:      3.2919E+03    3.2916E+03     2.9443E-01        0.0089
1
                            STRESS PERIOD NO.      6, LENGTH =   30.42000    
                            -----------------------------------------------

                              NUMBER OF TIME STEPS =     2

                               MULTIPLIER FOR DELT =     1.000

                            INITIAL TIME STEP SIZE =   15.21000    

 REUSING STREAM SEGMENT DATA FROM LAST STRESS PERIOD

 Parameter:  WELLS1
 WELL NO. LAYER    ROW    COL  F-WELL ID    FARM ID         QMAX         QMAXRESET       LGRGRID         
 --------------------------------------------------------------------------------------------------------
       1      1      2      2          5          2      2.0000E+03              0              0
       2      1      5      5          6          2      1.0000E+03              0              0

 NUMBER OF ACTIVE FARM WELLS:        2

 FARM-ID  NUMBER OF WELLS PER FARM  TOTAL MAX.CAPACITY PER FARM
       1                         0                       0.0000
       2                         2                    3000.0000
       3                         0                       0.0000
       4                         0                       0.0000
       5                         0                       0.0000
       6                         0                       0.0000
       7                         0                       0.0000
       8                         0                       0.0000

Transpiratory and Evaporative Fractions of Crop Consumptive Use
    % Transpiration % Evap. for Precip. % Evap. for Irrig.
    3          0.000          1.000          1.000
    5          0.927          0.073          0.000

FRACTIONS OF IN-EFFICIENT LOSSES TO SW-RUNOFF FROM 
     PRECIPITATION:  IRRIGATION:
    3          0.600          0.500
    5          0.500          0.000
 
 SOLVING FOR HEAD 


     3 CALLS TO PCG ROUTINE FOR TIME STEP   1 IN STRESS PERIOD    6
    10 TOTAL ITERATIONS


     3 CALLS TO PCG ROUTINE FOR TIME STEP   1 IN STRESS PERIOD    6
    10 TOTAL ITERATIONS


     2 CALLS TO PCG ROUTINE FOR TIME STEP   1 IN STRESS PERIOD    6
     7 TOTAL ITERATIONS


     2 CALLS TO PCG ROUTINE FOR TIME STEP   1 IN STRESS PERIOD    6
     6 TOTAL ITERATIONS


     2 CALLS TO PCG ROUTINE FOR TIME STEP   1 IN STRESS PERIOD    6
     6 TOTAL ITERATIONS


     2 CALLS TO PCG ROUTINE FOR TIME STEP   1 IN STRESS PERIOD    6
     6 TOTAL ITERATIONS


     2 CALLS TO PCG ROUTINE FOR TIME STEP   1 IN STRESS PERIOD    6
     6 TOTAL ITERATIONS


     2 CALLS TO PCG ROUTINE FOR TIME STEP   1 IN STRESS PERIOD    6
     4 TOTAL ITERATIONS


     2 CALLS TO PCG ROUTINE FOR TIME STEP   1 IN STRESS PERIOD    6
     4 TOTAL ITERATIONS


     2 CALLS TO PCG ROUTINE FOR TIME STEP   1 IN STRESS PERIOD    6
     3 TOTAL ITERATIONS

 OUTPUT CONTROL FOR STRESS PERIOD      6   TIME STEP     1
    SAVE BUDGET
 UBDSV1 SAVING "         STORAGE" ON UNIT7013 AT TIME STEP    1, STRESS PERIOD   6
 UBDSV2 SAVING "   CONSTANT HEAD" ON UNIT7013 AT TIME STEP    1, STRESS PERIOD   6
 UBDSV1 SAVING "FLOW RIGHT FACE " ON UNIT7013 AT TIME STEP    1, STRESS PERIOD   6
 UBDSV1 SAVING "FLOW FRONT FACE " ON UNIT7013 AT TIME STEP    1, STRESS PERIOD   6
 UBDSV1 SAVING "FLOW LOWER FACE " ON UNIT7013 AT TIME STEP    1, STRESS PERIOD   6
 UBDSV4 SAVING "  STREAM LEAKAGE" ON UNIT7013 AT TIME STEP    1, STRESS PERIOD   6



 UBDSV3 SAVING "FARM  NET  RECH." ON UNIT7013 AT TIME STEP    1, STRESS PERIOD   6
 UBDSV4 SAVING " GHOST-NODE HEAD" ON UNIT7013 AT TIME STEP    1, STRESS PERIOD   6
1
  FLUX ACROSS PARENT-CHILD INTERFACE AT TIME STEP  1 IN STRESS PERIOD    6
  ------------------------------------------------------------------------
 G-N FLUX        PARENT        CHILD         DIFFERENCE      % DIFFERENCE
  RATE IN:      2.2461E+03    2.2465E+03    -3.7671E-01       -0.0168
 RATE OUT:      3.1787E+03    3.1792E+03    -5.4126E-01       -0.0170
 
 SOLVING FOR HEAD 
     3 CALLS TO PCG ROUTINE FOR TIME STEP   2 IN STRESS PERIOD    6
    10 TOTAL ITERATIONS
     3 CALLS TO PCG ROUTINE FOR TIME STEP   2 IN STRESS PERIOD    6
    10 TOTAL ITERATIONS
     2 CALLS TO PCG ROUTINE FOR TIME STEP   2 IN STRESS PERIOD    6
     7 TOTAL ITERATIONS
     2 CALLS TO PCG ROUTINE FOR TIME STEP   2 IN STRESS PERIOD    6
     7 TOTAL ITERATIONS
     2 CALLS TO PCG ROUTINE FOR TIME STEP   2 IN STRESS PERIOD    6
     7 TOTAL ITERATIONS
     2 CALLS TO PCG ROUTINE FOR TIME STEP   2 IN STRESS PERIOD    6
     6 TOTAL ITERATIONS
     2 CALLS TO PCG ROUTINE FOR TIME STEP   2 IN STRESS PERIOD    6
     5 TOTAL ITERATIONS
     2 CALLS TO PCG ROUTINE FOR TIME STEP   2 IN STRESS PERIOD    6
     4 TOTAL ITERATIONS
     2 CALLS TO PCG ROUTINE FOR TIME STEP   2 IN STRESS PERIOD    6
     4 TOTAL ITERATIONS
     2 CALLS TO PCG ROUTINE FOR TIME STEP   2 IN STRESS PERIOD    6
     3 TOTAL ITERATIONS
     2 CALLS TO PCG ROUTINE FOR TIME STEP   2 IN STRESS PERIOD    6
     3 TOTAL ITERATIONS

 OUTPUT CONTROL FOR STRESS PERIOD      6   TIME STEP     2
    PRINT BUDGET
    SAVE HEAD FOR ALL LAYERS
    SAVE BUDGET
 UBDSV1 SAVING "         STORAGE" ON UNIT7013 AT TIME STEP    2, STRESS PERIOD   6
 UBDSV2 SAVING "   CONSTANT HEAD" ON UNIT7013 AT TIME STEP    2, STRESS PERIOD   6
 UBDSV1 SAVING "FLOW RIGHT FACE " ON UNIT7013 AT TIME STEP    2, STRESS PERIOD   6
 UBDSV1 SAVING "FLOW FRONT FACE " ON UNIT7013 AT TIME STEP    2, STRESS PERIOD   6
 UBDSV1 SAVING "FLOW LOWER FACE " ON UNIT7013 AT TIME STEP    2, STRESS PERIOD   6
 UBDSV4 SAVING "  STREAM LEAKAGE" ON UNIT7013 AT TIME STEP    2, STRESS PERIOD   6



 UBDSV3 SAVING "FARM  NET  RECH." ON UNIT7013 AT TIME STEP    2, STRESS PERIOD   6
 UBDSV4 SAVING " GHOST-NODE HEAD" ON UNIT7013 AT TIME STEP    2, STRESS PERIOD   6

 HEAD WILL BE SAVED ON UNIT 2213 AT END OF TIME STEP     2, STRESS PERIOD      6
1
  VOLUMETRIC BUDGET FOR ENTIRE MODEL AT END OF TIME STEP    2 IN STRESS PERIOD      6
  ------------------------------------------------------------------------------

     CUMULATIVE VOLUMES      L**3       RATES FOR THIS TIME STEP      L**3/T
     ------------------                 ------------------------

           IN:                                      IN:
           ---                                      ---
             STORAGE =       94855.9922               STORAGE =         468.2668
       CONSTANT HEAD =           0.0000         CONSTANT HEAD =           0.0000
      STREAM LEAKAGE =       16235.6699        STREAM LEAKAGE =         501.2855
          FARM WELLS =           0.0000            FARM WELLS =           0.0000
    FARM  NET  RECH. =       86564.1094      FARM  NET  RECH. =           0.0000
     GHOST-NODE HEAD =      542861.0000       GHOST-NODE HEAD =        2091.7393

            TOTAL IN =      740516.7500              TOTAL IN =        3061.2915

          OUT:                                     OUT:
          ----                                     ----
             STORAGE =        8441.2637               STORAGE =           0.0000
       CONSTANT HEAD =           0.0000         CONSTANT HEAD =           0.0000
      STREAM LEAKAGE =       96433.1719        STREAM LEAKAGE =           0.0000
          FARM WELLS =           0.0000            FARM WELLS =           0.0000
    FARM  NET  RECH. =        3526.6760      FARM  NET  RECH. =           0.0000
     GHOST-NODE HEAD =      632115.4375       GHOST-NODE HEAD =        3061.2612

           TOTAL OUT =      740516.5625             TOTAL OUT =        3061.2612

            IN - OUT =           0.1875              IN - OUT =       3.0273E-02

 PERCENT DISCREPANCY =           0.00     PERCENT DISCREPANCY =           0.00






          TIME SUMMARY AT END OF TIME STEP     2 IN STRESS PERIOD      6
                    SECONDS     MINUTES      HOURS       DAYS        YEARS
                    -----------------------------------------------------------
   TIME STEP LENGTH 1.31414E+06  21902.      365.04      15.210     4.16427E-02
 STRESS PERIOD TIME 2.62829E+06  43805.      730.08      30.420     8.32854E-02
         TOTAL TIME 1.57697E+07 2.62829E+05  4380.5      182.52     0.49971    
1
1
  FLUX ACROSS PARENT-CHILD INTERFACE AT TIME STEP  2 IN STRESS PERIOD    6
  ------------------------------------------------------------------------
 G-N FLUX        PARENT        CHILD         DIFFERENCE      % DIFFERENCE
  RATE IN:      2.0916E+03    2.0917E+03    -1.5527E-01       -0.0074
 RATE OUT:      3.0614E+03    3.0613E+03     1.7700E-01        0.0058
1
                            STRESS PERIOD NO.      7, LENGTH =   30.42000    
                            -----------------------------------------------

                              NUMBER OF TIME STEPS =     2

                               MULTIPLIER FOR DELT =     1.000

                            INITIAL TIME STEP SIZE =   15.21000    

 REUSING STREAM SEGMENT DATA FROM LAST STRESS PERIOD

 Parameter:  WELLS1
 WELL NO. LAYER    ROW    COL  F-WELL ID    FARM ID         QMAX         QMAXRESET       LGRGRID         
 --------------------------------------------------------------------------------------------------------
       1      1      2      2          5          2      2.0000E+03              0              0
       2      1      5      5          6          2      1.0000E+03              0              0

 NUMBER OF ACTIVE FARM WELLS:        2

 FARM-ID  NUMBER OF WELLS PER FARM  TOTAL MAX.CAPACITY PER FARM
       1                         0                       0.0000
       2                         2                    3000.0000
       3                         0                       0.0000
       4                         0                       0.0000
       5                         0                       0.0000
       6                         0                       0.0000
       7                         0                       0.0000
[...]

           IN:                                      IN:
           ---                                      ---
             STORAGE =      262291.8750               STORAGE =         181.4261
       CONSTANT HEAD =           0.0000         CONSTANT HEAD =           0.0000
      STREAM LEAKAGE =      241585.6250        STREAM LEAKAGE =        1142.7084
          FARM WELLS =           0.0000            FARM WELLS =           0.0000
    FARM  NET  RECH. =      330853.4688      FARM  NET  RECH. =        1142.7084
     GHOST-NODE HEAD =     1584413.8750       GHOST-NODE HEAD =        1431.7039

            TOTAL IN =     2419145.0000              TOTAL IN =        3898.5466

          OUT:                                     OUT:
          ----                                     ----
             STORAGE =       76334.1250               STORAGE =          13.8340
       CONSTANT HEAD =           0.0000         CONSTANT HEAD =           0.0000
      STREAM LEAKAGE =      111515.4375        STREAM LEAKAGE =           0.0000
          FARM WELLS =       78522.2266            FARM WELLS =         711.7002
    FARM  NET  RECH. =        3628.1860      FARM  NET  RECH. =           0.0000
     GHOST-NODE HEAD =     2149143.0000       GHOST-NODE HEAD =        3173.0789

           TOTAL OUT =     2419143.0000             TOTAL OUT =        3898.6130

            IN - OUT =           2.0000              IN - OUT =      -6.6406E-02

 PERCENT DISCREPANCY =           0.00     PERCENT DISCREPANCY =          -0.00






          TIME SUMMARY AT END OF TIME STEP     2 IN STRESS PERIOD     22
                    SECONDS     MINUTES      HOURS       DAYS        YEARS
                    -----------------------------------------------------------
   TIME STEP LENGTH 1.31414E+06  21902.      365.04      15.210     4.16427E-02
 STRESS PERIOD TIME 2.62829E+06  43805.      730.08      30.420     8.32854E-02
         TOTAL TIME 5.78223E+07 9.63706E+05  16062.      669.24      1.8323    
1
1
  FLUX ACROSS PARENT-CHILD INTERFACE AT TIME STEP  2 IN STRESS PERIOD   22
  ------------------------------------------------------------------------
 G-N FLUX        PARENT        CHILD         DIFFERENCE      % DIFFERENCE
  RATE IN:      1.4324E+03    1.4317E+03     7.1521E-01        0.0499
 RATE OUT:      3.1735E+03    3.1731E+03     3.9526E-01        0.0125
1
                            STRESS PERIOD NO.     23, LENGTH =   30.42000    
                            -----------------------------------------------

                              NUMBER OF TIME STEPS =     2

                               MULTIPLIER FOR DELT =     1.000

                            INITIAL TIME STEP SIZE =   15.21000    

 REUSING STREAM SEGMENT DATA FROM LAST STRESS PERIOD

 Parameter:  WELLS1
 WELL NO. LAYER    ROW    COL  F-WELL ID    FARM ID         QMAX         QMAXRESET       LGRGRID         
 --------------------------------------------------------------------------------------------------------
       1      1      2      2          5          2      2.0000E+03              0              0
       2      1      5      5          6          2      1.0000E+03              0              0

 NUMBER OF ACTIVE FARM WELLS:        2

 FARM-ID  NUMBER OF WELLS PER FARM  TOTAL MAX.CAPACITY PER FARM
       1                         0                       0.0000
       2                         2                    3000.0000
       3                         0                       0.0000
       4                         0                       0.0000
       5                         0                       0.0000
       6                         0                       0.0000
       7                         0                       0.0000
       8                         0                       0.0000

Transpiratory and Evaporative Fractions of Crop Consumptive Use
    % Transpiration % Evap. for Precip. % Evap. for Irrig.
    3          0.954          0.046          0.046
    5          0.927          0.073          0.000

FRACTIONS OF IN-EFFICIENT LOSSES TO SW-RUNOFF FROM 
     PRECIPITATION:  IRRIGATION:
    3          0.600          0.500
    5          0.500          0.000
 
 SOLVING FOR HEAD 


     5 CALLS TO PCG ROUTINE FOR TIME STEP   1 IN STRESS PERIOD   23
    21 TOTAL ITERATIONS


     3 CALLS TO PCG ROUTINE FOR TIME STEP   1 IN STRESS PERIOD   23
    11 TOTAL ITERATIONS


     2 CALLS TO PCG ROUTINE FOR TIME STEP   1 IN STRESS PERIOD   23
     8 TOTAL ITERATIONS


     2 CALLS TO PCG ROUTINE FOR TIME STEP   1 IN STRESS PERIOD   23
     7 TOTAL ITERATIONS


     2 CALLS TO PCG ROUTINE FOR TIME STEP   1 IN STRESS PERIOD   23
     6 TOTAL ITERATIONS


     2 CALLS TO PCG ROUTINE FOR TIME STEP   1 IN STRESS PERIOD   23
     6 TOTAL ITERATIONS


     2 CALLS TO PCG ROUTINE FOR TIME STEP   1 IN STRESS PERIOD   23
     6 TOTAL ITERATIONS


     2 CALLS TO PCG ROUTINE FOR TIME STEP   1 IN STRESS PERIOD   23
     6 TOTAL ITERATIONS


     2 CALLS TO PCG ROUTINE FOR TIME STEP   1 IN STRESS PERIOD   23
     4 TOTAL ITERATIONS


     2 CALLS TO PCG ROUTINE FOR TIME STEP   1 IN STRESS PERIOD   23
     4 TOTAL ITERATIONS


     2 CALLS TO PCG ROUTINE FOR TIME STEP   1 IN STRESS PERIOD   23
     3 TOTAL ITERATIONS

 OUTPUT CONTROL FOR STRESS PERIOD     23   TIME STEP     1
    SAVE BUDGET
 UBDSV1 SAVING "         STORAGE" ON UNIT7013 AT TIME STEP    1, STRESS PERIOD  23
 UBDSV2 SAVING "   CONSTANT HEAD" ON UNIT7013 AT TIME STEP    1, STRESS PERIOD  23
 UBDSV1 SAVING "FLOW RIGHT FACE " ON UNIT7013 AT TIME STEP    1, STRESS PERIOD  23
 UBDSV1 SAVING "FLOW FRONT FACE " ON UNIT7013 AT TIME STEP    1, STRESS PERIOD  23
 UBDSV1 SAVING "FLOW LOWER FACE " ON UNIT7013 AT TIME STEP    1, STRESS PERIOD  23
 UBDSV4 SAVING "  STREAM LEAKAGE" ON UNIT7013 AT TIME STEP    1, STRESS PERIOD  23



 UBDSV3 SAVING "FARM  NET  RECH." ON UNIT7013 AT TIME STEP    1, STRESS PERIOD  23
 UBDSV4 SAVING " GHOST-NODE HEAD" ON UNIT7013 AT TIME STEP    1, STRESS PERIOD  23
1
  FLUX ACROSS PARENT-CHILD INTERFACE AT TIME STEP  1 IN STRESS PERIOD   23
  ------------------------------------------------------------------------
 G-N FLUX        PARENT        CHILD         DIFFERENCE      % DIFFERENCE
  RATE IN:      2.6522E+03    2.6517E+03     4.9463E-01        0.0187
 RATE OUT:      3.1030E+03    3.1033E+03    -2.3926E-01       -0.0077
 
 SOLVING FOR HEAD 
     6 CALLS TO PCG ROUTINE FOR TIME STEP   2 IN STRESS PERIOD   23
    24 TOTAL ITERATIONS
     3 CALLS TO PCG ROUTINE FOR TIME STEP   2 IN STRESS PERIOD   23
    11 TOTAL ITERATIONS
     2 CALLS TO PCG ROUTINE FOR TIME STEP   2 IN STRESS PERIOD   23
     7 TOTAL ITERATIONS
     2 CALLS TO PCG ROUTINE FOR TIME STEP   2 IN STRESS PERIOD   23
     6 TOTAL ITERATIONS
     2 CALLS TO PCG ROUTINE FOR TIME STEP   2 IN STRESS PERIOD   23
     6 TOTAL ITERATIONS
     2 CALLS TO PCG ROUTINE FOR TIME STEP   2 IN STRESS PERIOD   23
     6 TOTAL ITERATIONS
     2 CALLS TO PCG ROUTINE FOR TIME STEP   2 IN STRESS PERIOD   23
     6 TOTAL ITERATIONS
     2 CALLS TO PCG ROUTINE FOR TIME STEP   2 IN STRESS PERIOD   23
     4 TOTAL ITERATIONS
     2 CALLS TO PCG ROUTINE FOR TIME STEP   2 IN STRESS PERIOD   23
     4 TOTAL ITERATIONS
     2 CALLS TO PCG ROUTINE FOR TIME STEP   2 IN STRESS PERIOD   23
     3 TOTAL ITERATIONS
     2 CALLS TO PCG ROUTINE FOR TIME STEP   2 IN STRESS PERIOD   23
     3 TOTAL ITERATIONS

 OUTPUT CONTROL FOR STRESS PERIOD     23   TIME STEP     2
    SAVE BUDGET
 UBDSV1 SAVING "         STORAGE" ON UNIT7013 AT TIME STEP    2, STRESS PERIOD  23
 UBDSV2 SAVING "   CONSTANT HEAD" ON UNIT7013 AT TIME STEP    2, STRESS PERIOD  23
 UBDSV1 SAVING "FLOW RIGHT FACE " ON UNIT7013 AT TIME STEP    2, STRESS PERIOD  23
 UBDSV1 SAVING "FLOW FRONT FACE " ON UNIT7013 AT TIME STEP    2, STRESS PERIOD  23
 UBDSV1 SAVING "FLOW LOWER FACE " ON UNIT7013 AT TIME STEP    2, STRESS PERIOD  23
 UBDSV4 SAVING "  STREAM LEAKAGE" ON UNIT7013 AT TIME STEP    2, STRESS PERIOD  23



 UBDSV3 SAVING "FARM  NET  RECH." ON UNIT7013 AT TIME STEP    2, STRESS PERIOD  23
 UBDSV4 SAVING " GHOST-NODE HEAD" ON UNIT7013 AT TIME STEP    2, STRESS PERIOD  23
1
  VOLUMETRIC BUDGET FOR ENTIRE MODEL AT END OF TIME STEP    2 IN STRESS PERIOD     23
  ------------------------------------------------------------------------------

     CUMULATIVE VOLUMES      L**3       RATES FOR THIS TIME STEP      L**3/T
     ------------------                 ------------------------

           IN:                                      IN:
           ---                                      ---
             STORAGE =      265346.4062               STORAGE =           0.0000
       CONSTANT HEAD =           0.0000         CONSTANT HEAD =           0.0000
      STREAM LEAKAGE =      247010.6562        STREAM LEAKAGE =         178.3375
          FARM WELLS =           0.0000            FARM WELLS =           0.0000
    FARM  NET  RECH. =      336278.4688      FARM  NET  RECH. =         178.3375
     GHOST-NODE HEAD =     1670755.0000       GHOST-NODE HEAD =        3024.9263

            TOTAL IN =     2519390.5000              TOTAL IN =        3381.6013

          OUT:                                     OUT:
          ----                                     ----
             STORAGE =       81694.6562               STORAGE =         246.4973
       CONSTANT HEAD =           0.0000         CONSTANT HEAD =           0.0000
      STREAM LEAKAGE =      111515.4375        STREAM LEAKAGE =           0.0000
          FARM WELLS =       78522.2266            FARM WELLS =           0.0000
    FARM  NET  RECH. =        3628.1860      FARM  NET  RECH. =           0.0000
     GHOST-NODE HEAD =     2244029.2500       GHOST-NODE HEAD =        3135.1323

           TOTAL OUT =     2519389.7500             TOTAL OUT =        3381.6296

            IN - OUT =           0.7500              IN - OUT =      -2.8320E-02

 PERCENT DISCREPANCY =           0.00     PERCENT DISCREPANCY =          -0.00






          TIME SUMMARY AT END OF TIME STEP     2 IN STRESS PERIOD     23
                    SECONDS     MINUTES      HOURS       DAYS        YEARS
                    -----------------------------------------------------------
   TIME STEP LENGTH 1.31414E+06  21902.      365.04      15.210     4.16427E-02
 STRESS PERIOD TIME 2.62829E+06  43805.      730.08      30.420     8.32854E-02
         TOTAL TIME 6.04506E+07 1.00751E+06  16792.      699.66      1.9156    
1
1
  FLUX ACROSS PARENT-CHILD INTERFACE AT TIME STEP  2 IN STRESS PERIOD   23
  ------------------------------------------------------------------------
 G-N FLUX        PARENT        CHILD         DIFFERENCE      % DIFFERENCE
  RATE IN:      3.0253E+03    3.0249E+03     3.3179E-01        0.0110
 RATE OUT:      3.1351E+03    3.1351E+03    -7.0557E-02       -0.0023
1
                            STRESS PERIOD NO.     24, LENGTH =   30.42000    
                            -----------------------------------------------

                              NUMBER OF TIME STEPS =     2

                               MULTIPLIER FOR DELT =     1.000

                            INITIAL TIME STEP SIZE =   15.21000    

 REUSING STREAM SEGMENT DATA FROM LAST STRESS PERIOD

 Parameter:  WELLS1
 WELL NO. LAYER    ROW    COL  F-WELL ID    FARM ID         QMAX         QMAXRESET       LGRGRID         
 --------------------------------------------------------------------------------------------------------
       1      1      2      2          5          2      2.0000E+03              0              0
       2      1      5      5          6          2      1.0000E+03              0              0

 NUMBER OF ACTIVE FARM WELLS:        2

 FARM-ID  NUMBER OF WELLS PER FARM  TOTAL MAX.CAPACITY PER FARM
       1                         0                       0.0000
       2                         2                    3000.0000
       3                         0                       0.0000
       4                         0                       0.0000
       5                         0                       0.0000
       6                         0                       0.0000
       7                         0                       0.0000
       8                         0                       0.0000

Transpiratory and Evaporative Fractions of Crop Consumptive Use
    % Transpiration % Evap. for Precip. % Evap. for Irrig.
    3          0.957          0.043          0.043
    5          0.926          0.074          0.000

FRACTIONS OF IN-EFFICIENT LOSSES TO SW-RUNOFF FROM 
     PRECIPITATION:  IRRIGATION:
    3          0.600          0.500
    5          0.830          0.000
 
 SOLVING FOR HEAD 


     4 CALLS TO PCG ROUTINE FOR TIME STEP   1 IN STRESS PERIOD   24
    22 TOTAL ITERATIONS


     3 CALLS TO PCG ROUTINE FOR TIME STEP   1 IN STRESS PERIOD   24
    10 TOTAL ITERATIONS


     3 CALLS TO PCG ROUTINE FOR TIME STEP   1 IN STRESS PERIOD   24
    10 TOTAL ITERATIONS


     3 CALLS TO PCG ROUTINE FOR TIME STEP   1 IN STRESS PERIOD   24
     9 TOTAL ITERATIONS


     2 CALLS TO PCG ROUTINE FOR TIME STEP   1 IN STRESS PERIOD   24
     7 TOTAL ITERATIONS


     2 CALLS TO PCG ROUTINE FOR TIME STEP   1 IN STRESS PERIOD   24
     6 TOTAL ITERATIONS


     2 CALLS TO PCG ROUTINE FOR TIME STEP   1 IN STRESS PERIOD   24
     5 TOTAL ITERATIONS


     2 CALLS TO PCG ROUTINE FOR TIME STEP   1 IN STRESS PERIOD   24
     4 TOTAL ITERATIONS


     2 CALLS TO PCG ROUTINE FOR TIME STEP   1 IN STRESS PERIOD   24
     4 TOTAL ITERATIONS


     2 CALLS TO PCG ROUTINE FOR TIME STEP   1 IN STRESS PERIOD   24
     3 TOTAL ITERATIONS


     2 CALLS TO PCG ROUTINE FOR TIME STEP   1 IN STRESS PERIOD   24
     3 TOTAL ITERATIONS

 OUTPUT CONTROL FOR STRESS PERIOD     24   TIME STEP     1
    SAVE BUDGET
 UBDSV1 SAVING "         STORAGE" ON UNIT7013 AT TIME STEP    1, STRESS PERIOD  24
 UBDSV2 SAVING "   CONSTANT HEAD" ON UNIT7013 AT TIME STEP    1, STRESS PERIOD  24
 UBDSV1 SAVING "FLOW RIGHT FACE " ON UNIT7013 AT TIME STEP    1, STRESS PERIOD  24
 UBDSV1 SAVING "FLOW FRONT FACE " ON UNIT7013 AT TIME STEP    1, STRESS PERIOD  24
 UBDSV1 SAVING "FLOW LOWER FACE " ON UNIT7013 AT TIME STEP    1, STRESS PERIOD  24
 UBDSV4 SAVING "  STREAM LEAKAGE" ON UNIT7013 AT TIME STEP    1, STRESS PERIOD  24



 UBDSV3 SAVING "FARM  NET  RECH." ON UNIT7013 AT TIME STEP    1, STRESS PERIOD  24
 UBDSV4 SAVING " GHOST-NODE HEAD" ON UNIT7013 AT TIME STEP    1, STRESS PERIOD  24
1
  FLUX ACROSS PARENT-CHILD INTERFACE AT TIME STEP  1 IN STRESS PERIOD   24
  ------------------------------------------------------------------------
 G-N FLUX        PARENT        CHILD         DIFFERENCE      % DIFFERENCE
  RATE IN:      2.4158E+03    2.4158E+03    -3.6621E-03       -0.0002
 RATE OUT:      3.5013E+03    3.5011E+03     2.8931E-01        0.0083
 
 SOLVING FOR HEAD 
     3 CALLS TO PCG ROUTINE FOR TIME STEP   2 IN STRESS PERIOD   24
    12 TOTAL ITERATIONS
     3 CALLS TO PCG ROUTINE FOR TIME STEP   2 IN STRESS PERIOD   24
    10 TOTAL ITERATIONS
     3 CALLS TO PCG ROUTINE FOR TIME STEP   2 IN STRESS PERIOD   24
     9 TOTAL ITERATIONS
     2 CALLS TO PCG ROUTINE FOR TIME STEP   2 IN STRESS PERIOD   24
     7 TOTAL ITERATIONS
     2 CALLS TO PCG ROUTINE FOR TIME STEP   2 IN STRESS PERIOD   24
     5 TOTAL ITERATIONS
     2 CALLS TO PCG ROUTINE FOR TIME STEP   2 IN STRESS PERIOD   24
     5 TOTAL ITERATIONS
     2 CALLS TO PCG ROUTINE FOR TIME STEP   2 IN STRESS PERIOD   24
     4 TOTAL ITERATIONS
     2 CALLS TO PCG ROUTINE FOR TIME STEP   2 IN STRESS PERIOD   24
     4 TOTAL ITERATIONS
     2 CALLS TO PCG ROUTINE FOR TIME STEP   2 IN STRESS PERIOD   24
     4 TOTAL ITERATIONS
     2 CALLS TO PCG ROUTINE FOR TIME STEP   2 IN STRESS PERIOD   24
     4 TOTAL ITERATIONS
     2 CALLS TO PCG ROUTINE FOR TIME STEP   2 IN STRESS PERIOD   24
     3 TOTAL ITERATIONS

 OUTPUT CONTROL FOR STRESS PERIOD     24   TIME STEP     2
    PRINT BUDGET
    SAVE HEAD FOR ALL LAYERS
    SAVE BUDGET
 UBDSV1 SAVING "         STORAGE" ON UNIT7013 AT TIME STEP    2, STRESS PERIOD  24
 UBDSV2 SAVING "   CONSTANT HEAD" ON UNIT7013 AT TIME STEP    2, STRESS PERIOD  24
 UBDSV1 SAVING "FLOW RIGHT FACE " ON UNIT7013 AT TIME STEP    2, STRESS PERIOD  24
 UBDSV1 SAVING "FLOW FRONT FACE " ON UNIT7013 AT TIME STEP    2, STRESS PERIOD  24
 UBDSV1 SAVING "FLOW LOWER FACE " ON UNIT7013 AT TIME STEP    2, STRESS PERIOD  24
 UBDSV4 SAVING "  STREAM LEAKAGE" ON UNIT7013 AT TIME STEP    2, STRESS PERIOD  24



 UBDSV3 SAVING "FARM  NET  RECH." ON UNIT7013 AT TIME STEP    2, STRESS PERIOD  24
 UBDSV4 SAVING " GHOST-NODE HEAD" ON UNIT7013 AT TIME STEP    2, STRESS PERIOD  24

 HEAD WILL BE SAVED ON UNIT 2213 AT END OF TIME STEP     2, STRESS PERIOD     24
1
  VOLUMETRIC BUDGET FOR ENTIRE MODEL AT END OF TIME STEP    2 IN STRESS PERIOD     24
  ------------------------------------------------------------------------------

     CUMULATIVE VOLUMES      L**3       RATES FOR THIS TIME STEP      L**3/T
     ------------------                 ------------------------

           IN:                                      IN:
           ---                                      ---
             STORAGE =      265346.4062               STORAGE =           0.0000
       CONSTANT HEAD =           0.0000         CONSTANT HEAD =           0.0000
      STREAM LEAKAGE =      291100.5312        STREAM LEAKAGE =        1222.7264
          FARM WELLS =           0.0000            FARM WELLS =           0.0000
    FARM  NET  RECH. =      360054.3438      FARM  NET  RECH. =         781.5877
     GHOST-NODE HEAD =     1745981.6250       GHOST-NODE HEAD =        2530.0833

            TOTAL IN =     2662483.0000              TOTAL IN =        4534.3975

          OUT:                                     OUT:
          ----                                     ----
             STORAGE =      116990.7188               STORAGE =         948.2087
       CONSTANT HEAD =           0.0000         CONSTANT HEAD =           0.0000
      STREAM LEAKAGE =      111515.4375        STREAM LEAKAGE =           0.0000
          FARM WELLS =       78522.2266            FARM WELLS =           0.0000
    FARM  NET  RECH. =        3628.1860      FARM  NET  RECH. =           0.0000
     GHOST-NODE HEAD =     2351826.7500       GHOST-NODE HEAD =        3586.2219

           TOTAL OUT =     2662483.2500             TOTAL OUT =        4534.4307

            IN - OUT =          -0.2500              IN - OUT =      -3.3203E-02

 PERCENT DISCREPANCY =          -0.00     PERCENT DISCREPANCY =          -0.00






          TIME SUMMARY AT END OF TIME STEP     2 IN STRESS PERIOD     24
                    SECONDS     MINUTES      HOURS       DAYS        YEARS
                    -----------------------------------------------------------
   TIME STEP LENGTH 1.31414E+06  21902.      365.04      15.210     4.16427E-02
 STRESS PERIOD TIME 2.62829E+06  43805.      730.08      30.420     8.32854E-02
         TOTAL TIME 6.30789E+07 1.05132E+06  17522.      730.08      1.9989    
1
1
  FLUX ACROSS PARENT-CHILD INTERFACE AT TIME STEP  2 IN STRESS PERIOD   24
  ------------------------------------------------------------------------
 G-N FLUX        PARENT        CHILD         DIFFERENCE      % DIFFERENCE
  RATE IN:      2.5304E+03    2.5301E+03     3.4473E-01        0.0136
 RATE OUT:      3.5861E+03    3.5862E+03    -9.8145E-02       -0.0027

 Run end date and time (yyyy/mm/dd hh:mm:ss): 1998/06/15  3:37:00
 Elapsed run time:  6.177 Seconds

